Material: main / ScAlMgO4 / Stefaniuk-e
Optical constants. T. Stefaniuk, J. Suffczyński, M. Wierzbowska, J. Z. Domagała, J. Kisielewski, A. Kłos, A. Korneluk, H. Teisseyre. Optical, electronic, and structural properties of ScAlMgO4, Phys. Rev. B 107, 085205 (2023) (See Supplemental Material. Missing data points kindly provided by Jan Suffczyński.)
Comments: Extraordinary ray (e).
Specs: {"n_is_absolute": true, "wavelength_is_vacuum": true}
wavelength (um)	n	k
0.1930	2.399775	0.001125
0.1960	2.290442	0.002093
0.1990	2.233522	0.003874
0.2020	2.190122	0.000898
0.2050	2.155810	0.000345
0.2080	2.127818	0.000182
0.2110	2.104107	0.000113
0.2140	2.083523	0.000078
0.2170	2.065346	0.000057
0.2200	2.049091	0.000044
0.2230	2.034417	0.000036
0.2260	2.021068	0.000029
0.2290	2.008850	0.000025
0.2320	1.997609	0.000021
0.2350	1.987223	0.000018
0.2380	1.977590	0.000016
0.2410	1.968626	0.000014
0.2440	1.960261	0.000013
0.2470	1.952433	0.000012
0.2500	1.945092	0.000011
0.2530	1.938191	0.000010
0.2560	1.931693	0.000009
0.2590	1.925563	0.000008
0.2620	1.919769	0.000008
0.2650	1.914286	0.000007
0.2680	1.909089	0.000007
0.2710	1.904156	0.000006
0.2740	1.899468	0.000006
0.2770	1.895008	0.000006
0.2800	1.890760	0.000005
0.2830	1.886709	0.000005
0.2860	1.882843	0.000005
0.2890	1.879149	0.000005
0.2920	1.875616	0.000005
0.2950	1.872235	0.000004
0.2980	1.868996	0.000004
0.3010	1.865891	0.000004
0.3040	1.862912	0.000004
0.3070	1.860052	0.000004
0.3100	1.857304	0.000004
0.3130	1.854662	0.000003
0.3160	1.852121	0.000003
0.3190	1.849674	0.000003
0.3220	1.847317	0.000003
0.3250	1.845046	0.000003
0.3280	1.842856	0.000003
0.3310	1.840742	0.000003
0.3340	1.838702	0.000003
0.3370	1.836732	0.000003
0.3400	1.834828	0.000003
0.3430	1.832987	0.000003
0.3460	1.831207	0.000003
0.3490	1.829484	0.000002
0.3520	1.827817	0.000002
0.3550	1.826202	0.000002
0.3580	1.824637	0.000002
0.3610	1.823120	0.000002
0.3640	1.821650	0.000002
0.3670	1.820223	0.000002
0.3700	1.818839	0.000002
0.3730	1.817496	0.000002
0.3760	1.816191	0.000002
0.3790	1.814924	0.000002
0.3820	1.813693	0.000002
0.3850	1.812496	0.000002
0.3880	1.811333	0.000002
0.3910	1.810201	0.000002
0.3940	1.809101	0.000002
0.3970	1.808029	0.000002
0.4000	1.806986	0.000002
0.4030	1.805971	0.000002
0.4060	1.804982	0.000002
0.4090	1.804018	0.000002
0.4120	1.803080	0.000002
0.4150	1.802165	0.000002
0.4180	1.801272	0.000002
0.4210	1.800402	0.000002
0.4240	1.799554	0.000002
0.4270	1.798726	0.000002
0.4300	1.797917	0.000002
0.4330	1.797129	0.000001
0.4360	1.796359	0.000001
0.4390	1.795607	0.000001
0.4420	1.794872	0.000001
0.4450	1.794155	0.000001
0.4480	1.793454	0.000001
0.4510	1.792768	0.000001
0.4540	1.792098	0.000001
0.4570	1.791443	0.000001
0.4600	1.790803	0.000001
0.4630	1.790177	0.000001
0.4660	1.789564	0.000001
0.4690	1.788964	0.000001
0.4720	1.788378	0.000001
0.4750	1.787803	0.000001
0.4780	1.787241	0.000001
0.4810	1.786691	0.000001
0.4840	1.786152	0.000001
0.4870	1.785624	0.000001
0.4900	1.785107	0.000001
0.4930	1.784600	0.000001
0.4960	1.784103	0.000001
0.4990	1.783617	0.000001
0.5020	1.783140	0.000001
0.5050	1.782672	0.000001
0.5080	1.782214	0.000001
0.5110	1.781764	0.000001
0.5140	1.781323	0.000001
0.5170	1.780891	0.000001
0.5200	1.780467	0.000001
0.5230	1.780050	0.000001
0.5260	1.779642	0.000001
0.5290	1.779241	0.000001
0.5320	1.778848	0.000001
0.5350	1.778461	0.000001
0.5380	1.778082	0.000001
0.5410	1.777710	0.000001
0.5440	1.777344	0.000001
0.5470	1.776985	0.000001
0.5500	1.776632	0.000001
0.5530	1.776286	0.000001
0.5560	1.775945	0.000001
0.5590	1.775611	0.000001
0.5620	1.775282	0.000001
0.5650	1.774959	0.000001
0.5680	1.774641	0.000001
0.5710	1.774329	0.000001
0.5740	1.774022	0.000001
0.5770	1.773720	0.000001
0.5800	1.773424	0.000001
0.5830	1.773132	0.000001
0.5860	1.772845	0.000001
0.5890	1.772562	0.000001
0.5920	1.772285	0.000001
0.5950	1.772011	0.000001
0.5980	1.771742	0.000001
0.6010	1.771478	0.000001
0.6040	1.771218	0.000001
0.6070	1.770961	0.000001
0.6100	1.770709	0.000001
0.6130	1.770461	0.000001
0.6160	1.770216	0.000001
0.6190	1.769976	0.000001
0.6220	1.769739	0.000001
0.6250	1.769505	0.000001
0.6280	1.769276	0.000001
0.6310	1.769049	0.000001
0.6340	1.768826	0.000001
0.6370	1.768607	0.000001
0.6400	1.768390	0.000001
0.6430	1.768177	0.000001
0.6460	1.767967	0.000001
0.6490	1.767760	0.000001
0.6520	1.767556	0.000001
0.6550	1.767355	0.000001
0.6580	1.767157	0.000001
0.6610	1.766962	0.000001
0.6640	1.766769	0.000001
0.6670	1.766580	0.000001
0.6700	1.766392	0.000001
0.6730	1.766208	0.000001
0.6760	1.766026	0.000001
0.6790	1.765847	0.000001
0.6820	1.765670	0.000001
0.6850	1.765495	0.000001
0.6880	1.765323	0.000001
0.6910	1.765154	0.000001
0.6940	1.764986	0.000001
0.6970	1.764821	0.000001
0.7000	1.764658	0.000001
0.7030	1.764497	0.000001
0.7060	1.764338	0.000001
0.7090	1.764182	0.000001
0.7120	1.764027	0.000001
0.7150	1.763875	0.000001
0.7180	1.763724	0.000001
0.7210	1.763576	0.000001
0.7240	1.763429	0.000001
0.7270	1.763284	0.000001
0.7300	1.763141	0.000001
0.7330	1.763000	0.000001
0.7360	1.762861	0.000001
0.7390	1.762723	0.000001
0.7420	1.762587	0.000001
0.7450	1.762453	0.000001
0.7480	1.762321	0.000001
0.7510	1.762190	0.000001
0.7540	1.762061	0.000001
0.7570	1.761933	0.000001
0.7600	1.761807	0.000001
0.7630	1.761682	0.000001
0.7660	1.761559	0.000001
0.7690	1.761438	0.000001
0.7720	1.761318	0.000001
0.7750	1.761199	0.000001
0.7780	1.761082	0.000001
0.7810	1.760966	0.000001
0.7840	1.760851	0.000001
0.7870	1.760738	0.000001
0.7900	1.760626	0.000001
0.7930	1.760515	0.000001
0.7960	1.760406	0.000001
0.7990	1.760298	0.000001
0.8020	1.760191	0.000001
0.8050	1.760086	0.000001
0.8080	1.759981	0.000001
0.8110	1.759878	0.000001
0.8140	1.759776	0.000001
0.8170	1.759675	0.000001
0.8200	1.759575	0.000001
0.8230	1.759477	0.000001
0.8260	1.759379	0.000001
0.8290	1.759283	0.000001
0.8320	1.759187	0.000001
0.8350	1.759093	0.000001
0.8380	1.758999	0.000001
0.8410	1.758907	0.000001
0.8440	1.758816	0.000001
0.8470	1.758725	0.000001
0.8500	1.758636	0.000001
0.8530	1.758548	0.000001
0.8560	1.758460	0.000001
0.8590	1.758373	0.000001
0.8620	1.758288	0.000001
0.8650	1.758203	0.000001
0.8680	1.758119	0.000001
0.8710	1.758036	0.000001
0.8740	1.757954	0.000001
0.8770	1.757873	0.000001
0.8800	1.757792	0.000001
0.8830	1.757713	0.000001
0.8860	1.757634	0.000001
0.8890	1.757556	0.000001
0.8920	1.757478	0.000001
0.8950	1.757402	0.000001
0.8980	1.757326	0.000001
0.9010	1.757252	0.000001
0.9040	1.757177	0.000001
0.9070	1.757104	0.000001
0.9100	1.757031	0.000001
0.9130	1.756959	0.000000
0.9160	1.756888	0.000000
0.9190	1.756817	0.000000
0.9220	1.756747	0.000000
0.9250	1.756678	0.000000
0.9280	1.756610	0.000000
0.9310	1.756542	0.000000
0.9340	1.756474	0.000000
0.9370	1.756408	0.000000
0.9400	1.756342	0.000000
0.9430	1.756276	0.000000
0.9460	1.756212	0.000000
0.9490	1.756148	0.000000
0.9520	1.756084	0.000000
0.9550	1.756021	0.000000
0.9580	1.755959	0.000000
0.9610	1.755897	0.000000
0.9640	1.755836	0.000000
0.9670	1.755775	0.000000
0.9700	1.755715	0.000000
0.9730	1.755656	0.000000
0.9760	1.755597	0.000000
0.9790	1.755538	0.000000
0.9820	1.755480	0.000000
0.9850	1.755423	0.000000
0.9880	1.755366	0.000000
0.9910	1.755310	0.000000
0.9940	1.755254	0.000000
0.9970	1.755198	0.000000
1.0000	1.755143	0.000000
1.0075	1.755008	0.000000
1.0150	1.754876	0.000000
1.0225	1.754747	0.000000
1.0300	1.754620	0.000000
1.0375	1.754496	0.000000
1.0450	1.754375	0.000000
1.0525	1.754256	0.000000
1.0600	1.754140	0.000000
1.0675	1.754026	0.000000
1.0750	1.753914	0.000000
1.0825	1.753804	0.000000
1.0900	1.753697	0.000000
1.0975	1.753592	0.000000
1.1050	1.753489	0.000000
1.1125	1.753387	0.000000
1.1200	1.753288	0.000000
1.1275	1.753191	0.000000
1.1350	1.753095	0.000000
1.1425	1.753001	0.000000
1.1500	1.752909	0.000000
1.1575	1.752819	0.000000
1.1650	1.752730	0.000000
1.1725	1.752643	0.000000
1.1800	1.752558	0.000000
1.1875	1.752474	0.000000
1.1950	1.752391	0.000000
1.2025	1.752310	0.000000
1.2100	1.752230	0.000000
1.2175	1.752152	0.000000
1.2250	1.752075	0.000000
1.2325	1.751999	0.000000
1.2400	1.751925	0.000000
1.2475	1.751851	0.000000
1.2550	1.751779	0.000000
1.2625	1.751708	0.000000
1.2700	1.751639	0.000000
1.2775	1.751570	0.000000
1.2850	1.751503	0.000000
1.2925	1.751436	0.000000
1.3000	1.751371	0.000000
1.3075	1.751306	0.000000
1.3150	1.751243	0.000000
1.3225	1.751180	0.000000
1.3300	1.751119	0.000000
1.3375	1.751058	0.000000
1.3450	1.750998	0.000000
1.3525	1.750939	0.000000
1.3600	1.750881	0.000000
1.3675	1.750824	0.000000
1.3750	1.750768	0.000000
1.3825	1.750712	0.000000
1.3900	1.750657	0.000000
1.3975	1.750603	0.000000
1.4050	1.750550	0.000000
1.4125	1.750497	0.000000
1.4200	1.750445	0.000000
1.4275	1.750394	0.000000
1.4350	1.750344	0.000000
1.4425	1.750294	0.000000
1.4500	1.750245	0.000000
1.4575	1.750196	0.000000
1.4650	1.750148	0.000000
1.4725	1.750101	0.000000
1.4800	1.750054	0.000000
1.4875	1.750008	0.000000
1.4950	1.749962	0.000000
1.5025	1.749917	0.000000
1.5100	1.749873	0.000000
1.5175	1.749829	0.000000
1.5250	1.749785	0.000000
1.5325	1.749742	0.000000
1.5400	1.749700	0.000000
1.5475	1.749658	0.000000
1.5550	1.749617	0.000000
1.5625	1.749576	0.000000
1.5700	1.749535	0.000000
1.5775	1.749495	0.000000
1.5850	1.749455	0.000000
1.5925	1.749416	0.000000
1.6000	1.749377	0.000000
1.6075	1.749339	0.000000
1.6150	1.749301	0.000000
1.6225	1.749264	0.000000
1.6300	1.749226	0.000000
1.6375	1.749190	0.000000
1.6450	1.749153	0.000000
1.6525	1.749117	0.000000
1.6600	1.749081	0.000000
1.6675	1.749046	0.000000
1.6750	1.749011	0.000000
1.6825	1.748977	0.000000
1.6900	1.748942	0.000000
