Material: main / ScAlMgO4 / Stefaniuk-o
Optical constants. T. Stefaniuk, J. Suffczyński, M. Wierzbowska, J. Z. Domagała, J. Kisielewski, A. Kłos, A. Korneluk, H. Teisseyre. Optical, electronic, and structural properties of ScAlMgO4, Phys. Rev. B 107, 085205 (2023) (See Supplemental Material. Missing data points kindly provided by Jan Suffczyński.)
Comments: Ordinary ray (o).
Specs: {"n_is_absolute": true, "wavelength_is_vacuum": true}
wavelength (um)	n	k
0.1930	2.321460	0.000338
0.1960	2.291634	0.000188
0.1990	2.264694	0.000087
0.2020	2.240281	0.000039
0.2050	2.218078	0.000021
0.2080	2.197807	0.000015
0.2110	2.179227	0.000013
0.2140	2.162137	0.000012
0.2170	2.146366	0.000011
0.2200	2.131770	0.000010
0.2230	2.118224	0.000009
0.2260	2.105622	0.000009
0.2290	2.093870	0.000008
0.2320	2.082888	0.000008
0.2350	2.072605	0.000007
0.2380	2.062957	0.000007
0.2410	2.053890	0.000007
0.2440	2.045354	0.000006
0.2470	2.037305	0.000006
0.2500	2.029705	0.000006
0.2530	2.022518	0.000006
0.2560	2.015713	0.000005
0.2590	2.009261	0.000005
0.2620	2.003137	0.000005
0.2650	1.997317	0.000005
0.2680	1.991780	0.000005
0.2710	1.986507	0.000005
0.2740	1.981480	0.000005
0.2770	1.976684	0.000004
0.2800	1.972104	0.000004
0.2830	1.967725	0.000004
0.2860	1.963536	0.000004
0.2890	1.959526	0.000004
0.2920	1.955683	0.000004
0.2950	1.951998	0.000004
0.2980	1.948462	0.000004
0.3010	1.945066	0.000004
0.3040	1.941803	0.000004
0.3070	1.938666	0.000004
0.3100	1.935648	0.000004
0.3130	1.932742	0.000003
0.3160	1.929943	0.000003
0.3190	1.927246	0.000003
0.3220	1.924645	0.000003
0.3250	1.922135	0.000003
0.3280	1.919713	0.000003
0.3310	1.917374	0.000003
0.3340	1.915113	0.000003
0.3370	1.912928	0.000003
0.3400	1.910815	0.000003
0.3430	1.908771	0.000003
0.3460	1.906792	0.000003
0.3490	1.904876	0.000003
0.3520	1.903019	0.000003
0.3550	1.901220	0.000002
0.3580	1.899476	0.000002
0.3610	1.897785	0.000002
0.3640	1.896144	0.000002
0.3670	1.894551	0.000002
0.3700	1.893005	0.000002
0.3730	1.891504	0.000002
0.3760	1.890045	0.000002
0.3790	1.888628	0.000002
0.3820	1.887249	0.000002
0.3850	1.885909	0.000002
0.3880	1.884606	0.000002
0.3910	1.883338	0.000002
0.3940	1.882104	0.000002
0.3970	1.880902	0.000002
0.4000	1.879732	0.000002
0.4030	1.878592	0.000002
0.4060	1.877482	0.000002
0.4090	1.876400	0.000002
0.4120	1.875345	0.000002
0.4150	1.874317	0.000002
0.4180	1.873314	0.000002
0.4210	1.872336	0.000002
0.4240	1.871381	0.000002
0.4270	1.870450	0.000002
0.4300	1.869540	0.000002
0.4330	1.868652	0.000002
0.4360	1.867785	0.000002
0.4390	1.866938	0.000002
0.4420	1.866111	0.000002
0.4450	1.865303	0.000002
0.4480	1.864513	0.000003
0.4510	1.863740	0.000003
0.4540	1.862985	0.000003
0.4570	1.862247	0.000003
0.4600	1.861524	0.000003
0.4630	1.860818	0.000003
0.4660	1.860126	0.000003
0.4690	1.859450	0.000003
0.4720	1.858788	0.000003
0.4750	1.858140	0.000003
0.4780	1.857505	0.000003
0.4810	1.856884	0.000003
0.4840	1.856275	0.000003
0.4870	1.855679	0.000003
0.4900	1.855095	0.000003
0.4930	1.854522	0.000003
0.4960	1.853961	0.000003
0.4990	1.853412	0.000003
0.5020	1.852873	0.000003
0.5050	1.852344	0.000003
0.5080	1.851826	0.000003
0.5110	1.851318	0.000003
0.5140	1.850820	0.000003
0.5170	1.850331	0.000003
0.5200	1.849851	0.000003
0.5230	1.849380	0.000003
0.5260	1.848919	0.000003
0.5290	1.848465	0.000003
0.5320	1.848020	0.000003
0.5350	1.847584	0.000003
0.5380	1.847155	0.000003
0.5410	1.846733	0.000003
0.5440	1.846320	0.000003
0.5470	1.845914	0.000003
0.5500	1.845514	0.000004
0.5530	1.845122	0.000004
0.5560	1.844737	0.000004
0.5590	1.844359	0.000004
0.5620	1.843987	0.000004
0.5650	1.843621	0.000004
0.5680	1.843262	0.000004
0.5710	1.842909	0.000004
0.5740	1.842561	0.000004
0.5770	1.842220	0.000004
0.5800	1.841884	0.000004
0.5830	1.841554	0.000004
0.5860	1.841229	0.000004
0.5890	1.840909	0.000004
0.5920	1.840595	0.000004
0.5950	1.840286	0.000004
0.5980	1.839981	0.000004
0.6010	1.839682	0.000004
0.6040	1.839387	0.000004
0.6070	1.839097	0.000004
0.6100	1.838812	0.000004
0.6130	1.838531	0.000004
0.6160	1.838254	0.000004
0.6190	1.837982	0.000004
0.6220	1.837714	0.000004
0.6250	1.837450	0.000004
0.6280	1.837190	0.000004
0.6310	1.836934	0.000004
0.6340	1.836681	0.000005
0.6370	1.836433	0.000005
0.6400	1.836188	0.000005
0.6430	1.835947	0.000005
0.6460	1.835710	0.000005
0.6490	1.835475	0.000005
0.6520	1.835245	0.000005
0.6550	1.835017	0.000005
0.6580	1.834793	0.000005
0.6610	1.834573	0.000005
0.6640	1.834355	0.000005
0.6670	1.834140	0.000005
0.6700	1.833929	0.000005
0.6730	1.833720	0.000005
0.6760	1.833515	0.000005
0.6790	1.833312	0.000005
0.6820	1.833112	0.000005
0.6850	1.832915	0.000005
0.6880	1.832720	0.000005
0.6910	1.832528	0.000005
0.6940	1.832339	0.000005
0.6970	1.832152	0.000005
0.7000	1.831968	0.000005
0.7030	1.831787	0.000005
0.7060	1.831607	0.000005
0.7090	1.831430	0.000005
0.7120	1.831256	0.000005
0.7150	1.831084	0.000005
0.7180	1.830914	0.000005
0.7210	1.830746	0.000005
0.7240	1.830580	0.000005
0.7270	1.830417	0.000005
0.7300	1.830256	0.000005
0.7330	1.830096	0.000005
0.7360	1.829939	0.000005
0.7390	1.829784	0.000006
0.7420	1.829631	0.000006
0.7450	1.829479	0.000006
0.7480	1.829330	0.000006
0.7510	1.829183	0.000006
0.7540	1.829037	0.000006
0.7570	1.828893	0.000006
0.7600	1.828751	0.000006
0.7630	1.828610	0.000006
0.7660	1.828472	0.000006
0.7690	1.828335	0.000006
0.7720	1.828199	0.000006
0.7750	1.828066	0.000006
0.7780	1.827933	0.000006
0.7810	1.827803	0.000006
0.7840	1.827674	0.000006
0.7870	1.827546	0.000006
0.7900	1.827421	0.000006
0.7930	1.827296	0.000006
0.7960	1.827173	0.000006
0.7990	1.827052	0.000006
0.8020	1.826931	0.000006
0.8050	1.826813	0.000006
0.8080	1.826695	0.000006
0.8110	1.826579	0.000006
0.8140	1.826465	0.000006
0.8170	1.826351	0.000006
0.8200	1.826239	0.000006
0.8230	1.826128	0.000006
0.8260	1.826019	0.000006
0.8290	1.825910	0.000006
0.8320	1.825803	0.000006
0.8350	1.825697	0.000006
0.8380	1.825593	0.000006
0.8410	1.825489	0.000006
0.8440	1.825387	0.000006
0.8470	1.825285	0.000006
0.8500	1.825185	0.000006
0.8530	1.825086	0.000006
0.8560	1.824988	0.000006
0.8590	1.824891	0.000006
0.8620	1.824795	0.000006
0.8650	1.824700	0.000006
0.8680	1.824606	0.000006
0.8710	1.824513	0.000006
0.8740	1.824421	0.000006
0.8770	1.824330	0.000006
0.8800	1.824240	0.000006
0.8830	1.824151	0.000006
0.8860	1.824063	0.000006
0.8890	1.823976	0.000006
0.8920	1.823889	0.000006
0.8950	1.823804	0.000006
0.8980	1.823720	0.000006
0.9010	1.823636	0.000006
0.9040	1.823553	0.000006
0.9070	1.823471	0.000006
0.9100	1.823390	0.000006
0.9130	1.823310	0.000006
0.9160	1.823230	0.000006
0.9190	1.823151	0.000006
0.9220	1.823074	0.000006
0.9250	1.822996	0.000006
0.9280	1.822920	0.000007
0.9310	1.822845	0.000007
0.9340	1.822770	0.000007
0.9370	1.822695	0.000007
0.9400	1.822622	0.000007
0.9430	1.822549	0.000007
0.9460	1.822477	0.000007
0.9490	1.822406	0.000007
0.9520	1.822336	0.000007
0.9550	1.822266	0.000007
0.9580	1.822197	0.000007
0.9610	1.822128	0.000007
0.9640	1.822060	0.000007
0.9670	1.821993	0.000007
0.9700	1.821926	0.000007
0.9730	1.821860	0.000007
0.9760	1.821795	0.000007
0.9790	1.821730	0.000007
0.9820	1.821666	0.000007
0.9850	1.821603	0.000007
0.9880	1.821540	0.000007
0.9910	1.821477	0.000007
0.9940	1.821416	0.000007
0.9970	1.821354	0.000007
1.0000	1.821294	0.000007
1.0075	1.821145	0.000007
1.0150	1.820999	0.000007
1.0225	1.820856	0.000007
1.0300	1.820717	0.000007
1.0375	1.820581	0.000007
1.0450	1.820447	0.000007
1.0525	1.820317	0.000007
1.0600	1.820189	0.000007
1.0675	1.820065	0.000007
1.0750	1.819942	0.000007
1.0825	1.819823	0.000007
1.0900	1.819706	0.000007
1.0975	1.819591	0.000007
1.1050	1.819479	0.000007
1.1125	1.819369	0.000007
1.1200	1.819261	0.000007
1.1275	1.819156	0.000007
1.1350	1.819052	0.000007
1.1425	1.818951	0.000007
1.1500	1.818852	0.000007
1.1575	1.818754	0.000007
1.1650	1.818659	0.000007
1.1725	1.818565	0.000007
1.1800	1.818473	0.000007
1.1875	1.818383	0.000007
1.1950	1.818295	0.000007
1.2025	1.818209	0.000007
1.2100	1.818124	0.000007
1.2175	1.818040	0.000007
1.2250	1.817958	0.000007
1.2325	1.817878	0.000007
1.2400	1.817799	0.000007
1.2475	1.817722	0.000007
1.2550	1.817646	0.000007
1.2625	1.817571	0.000007
1.2700	1.817498	0.000007
1.2775	1.817426	0.000007
1.2850	1.817355	0.000007
1.2925	1.817286	0.000007
1.3000	1.817217	0.000007
1.3075	1.817150	0.000007
1.3150	1.817084	0.000007
1.3225	1.817020	0.000007
1.3300	1.816956	0.000007
1.3375	1.816893	0.000007
1.3450	1.816832	0.000007
1.3525	1.816771	0.000007
1.3600	1.816712	0.000006
1.3675	1.816653	0.000006
1.3750	1.816596	0.000006
1.3825	1.816539	0.000006
1.3900	1.816484	0.000006
1.3975	1.816429	0.000006
1.4050	1.816375	0.000006
1.4125	1.816322	0.000006
1.4200	1.816270	0.000006
1.4275	1.816218	0.000006
1.4350	1.816168	0.000006
1.4425	1.816118	0.000006
1.4500	1.816069	0.000006
1.4575	1.816021	0.000006
1.4650	1.815974	0.000006
1.4725	1.815927	0.000006
1.4800	1.815881	0.000006
1.4875	1.815836	0.000006
1.4950	1.815791	0.000006
1.5025	1.815747	0.000006
1.5100	1.815704	0.000006
1.5175	1.815661	0.000006
1.5250	1.815619	0.000006
1.5325	1.815578	0.000006
1.5400	1.815537	0.000006
1.5475	1.815497	0.000006
1.5550	1.815458	0.000006
1.5625	1.815419	0.000006
1.5700	1.815380	0.000006
1.5775	1.815342	0.000006
1.5850	1.815305	0.000006
1.5925	1.815268	0.000006
1.6000	1.815232	0.000006
1.6075	1.815196	0.000006
1.6150	1.815161	0.000006
1.6225	1.815126	0.000006
1.6300	1.815092	0.000006
1.6375	1.815058	0.000006
1.6450	1.815025	0.000006
1.6525	1.814992	0.000006
1.6600	1.814959	0.000006
1.6675	1.814927	0.000006
1.6750	1.814896	0.000006
1.6825	1.814865	0.000006
1.6900	1.814834	0.000006
