Material: mixed crystals / TlBr-TlCl / Jansonas
Optical constants. G. Jansonas, R. Budriūnas, M. Vengris, A. Varanavičius. Interferometric measurements of nonlinear refractive index in the infrared spectral range, Opt. Express 30, 30507–30524 (2022)
Comments: Mixed crystal TlBr-TlCl (KRS-6). 170 fs and 190 fs at 2.2 μm and 3.2 μm, respectively. Fourier Interferometry.
Specs: {"n2_method": "FI", "pulse_duration": "170e-15 190e-15"}
wavelength (um)	n	2
2.2	12.1e-19
3.2	11.9e-19
