Material: main / SnSe / Guo-alpha
Optical constants. Z. Guo, H. Gu, Y. Yu, Z. Wei, S. Liu. Broadband and incident-angle-modulation near-infrared polarizers based on optically anisotropic SnSe, Nanomaterials, 13, 134 (2022) (Numerical data kindly provided by Zhengfeng Guo)
Comments: nα, kα; room temperature.
wavelength (um)	n	k
0.1930	1.491060	0.000000
0.1960	1.481685	0.000000
0.1990	1.472832	0.000000
0.2020	1.464462	0.000000
0.2050	1.456540	0.000000
0.2080	1.449036	0.000000
0.2110	1.441921	0.000000
0.2140	1.435166	0.000000
0.2170	1.428750	0.000000
0.2200	1.422649	0.000000
0.2230	1.416843	0.000000
0.2260	1.411313	0.000000
0.2290	1.406042	0.000000
0.2320	1.401014	0.000000
0.2350	1.396214	0.000000
0.2380	1.391628	0.000000
0.2410	1.387244	0.000000
0.2440	1.383049	0.000000
0.2470	1.379034	0.000000
0.2500	1.375188	0.000000
0.2530	1.371501	0.000000
0.2560	1.367965	0.000000
0.2590	1.364571	0.000000
0.2620	1.361313	0.000000
0.2650	1.358182	0.000000
0.2680	1.355172	0.000000
0.2710	1.352277	0.000000
0.2740	1.349491	0.000000
0.2770	1.346808	0.000000
0.2800	1.344224	0.000000
0.2830	1.341734	0.000000
0.2860	1.339333	0.000000
0.2890	1.337017	0.000000
0.2920	1.334781	0.000000
0.2950	1.332623	0.000000
0.2980	1.330539	0.000000
0.3010	1.328524	0.000000
0.3040	1.326577	0.000000
0.3070	1.324693	0.000000
0.3100	1.322871	0.000000
0.3130	1.321108	0.000000
0.3160	1.319401	0.000000
0.3190	1.317747	0.000000
0.3220	1.316145	0.000000
0.3250	1.314592	0.000000
0.3280	1.313086	0.000000
0.3310	1.311626	0.000000
0.3340	1.310210	0.000000
0.3370	1.308835	0.000000
0.3400	1.307500	0.000000
0.3430	1.306204	0.000000
0.3460	1.304945	0.000000
0.3490	1.303722	0.000000
0.3520	1.302533	0.000000
0.3550	1.301377	0.000000
0.3580	1.300253	0.000000
0.3610	1.299159	0.000000
0.3640	1.298095	0.000000
0.3670	1.297060	0.000000
0.3700	1.296052	0.000000
0.3730	1.295070	0.000000
0.3760	1.294114	0.000000
0.3790	1.293183	0.000000
0.3820	1.292275	0.000000
0.3850	1.291391	0.000000
0.3880	1.290528	0.000000
0.3910	1.289687	0.000000
0.3940	1.288867	0.000000
0.3970	1.288067	0.000000
0.4000	1.287286	0.000000
0.4030	1.286525	0.000000
0.4060	1.285781	0.000000
0.4090	1.285055	0.000000
0.4120	1.284346	0.000000
0.4150	1.283653	0.000000
0.4180	1.282976	0.000000
0.4210	1.282315	0.000000
0.4240	1.281669	0.000000
0.4270	1.281037	0.000000
0.4300	1.280420	0.000000
0.4330	1.279816	0.000000
0.4360	1.279226	0.000000
0.4390	1.278648	0.000000
0.4420	1.278083	0.000000
0.4450	1.277531	0.000000
0.4480	1.276990	0.000000
0.4510	1.276460	0.000000
0.4540	1.275942	0.000000
0.4570	1.275434	0.000000
0.4600	1.274937	0.000000
0.4630	1.274450	0.000000
0.4660	1.273973	0.000000
0.4690	1.273506	0.000000
0.4720	1.273049	0.000000
0.4750	1.272600	0.000000
0.4780	1.272160	0.000000
0.4810	1.271729	0.000000
0.4840	1.271307	0.000000
0.4870	1.270893	0.000000
0.4900	1.270486	0.000000
0.4930	1.270088	0.000000
0.4960	1.269697	0.000000
0.4990	1.269314	0.000000
0.5020	1.268937	0.000000
0.5050	1.268568	0.000000
0.5080	1.268206	0.000000
0.5110	1.267850	0.000000
0.5140	1.267501	0.000000
0.5170	1.267159	0.000000
0.5200	1.266822	0.000000
0.5230	1.266492	0.000000
0.5260	1.266167	0.000000
0.5290	1.265849	0.000000
0.5320	1.265536	0.000000
0.5350	1.265228	0.000000
0.5380	1.264926	0.000000
0.5410	1.264629	0.000000
0.5440	1.264337	0.000000
0.5470	1.264050	0.000000
0.5500	1.263769	0.000000
0.5530	1.263492	0.000000
0.5560	1.263219	0.000000
0.5590	1.262951	0.000000
0.5620	1.262688	0.000000
0.5650	1.262429	0.000000
0.5680	1.262174	0.000000
0.5710	1.261924	0.000000
0.5740	1.261677	0.000000
0.5770	1.261435	0.000000
0.5800	1.261196	0.000000
0.5830	1.260961	0.000000
0.5860	1.260730	0.000000
0.5890	1.260503	0.000000
0.5920	1.260279	0.000000
0.5950	1.260059	0.000000
0.5980	1.259842	0.000000
0.6010	1.259629	0.000000
0.6040	1.259418	0.000000
0.6070	1.259212	0.000000
0.6100	1.259008	0.000000
0.6130	1.258807	0.000000
0.6160	1.258610	0.000000
0.6190	1.258415	0.000000
0.6220	1.258223	0.000000
0.6250	1.258034	0.000000
0.6280	1.257848	0.000000
0.6310	1.257665	0.000000
0.6340	1.257484	0.000000
0.6370	1.257306	0.000000
0.6400	1.257131	0.000000
0.6430	1.256958	0.000000
0.6460	1.256787	0.000000
0.6490	1.256619	0.000000
0.6520	1.256454	0.000000
0.6550	1.256291	0.000000
0.6580	1.256130	0.000000
0.6610	1.255971	0.000000
0.6640	1.255814	0.000000
0.6670	1.255660	0.000000
0.6700	1.255508	0.000000
0.6730	1.255358	0.000000
0.6760	1.255210	0.000000
0.6790	1.255064	0.000000
0.6820	1.254920	0.000000
0.6850	1.254778	0.000000
0.6880	1.254638	0.000000
0.6910	1.254499	0.000000
0.6940	1.254363	0.000000
0.6970	1.254228	0.000000
0.7000	1.254095	0.000000
0.7030	1.253964	0.000000
0.7060	1.253835	0.000000
0.7090	1.253707	0.000000
0.7120	1.253581	0.000000
0.7150	1.253457	0.000000
0.7180	1.253334	0.000000
0.7210	1.253213	0.000000
0.7240	1.253093	0.000000
0.7270	1.252975	0.000000
0.7300	1.252858	0.000000
0.7330	1.252743	0.000000
0.7360	1.252629	0.000000
0.7390	1.252517	0.000000
0.7420	1.252406	0.000000
0.7450	1.252296	0.000000
0.7480	1.252188	0.000000
0.7510	1.252081	0.000000
0.7540	1.251975	0.000000
0.7570	1.251871	0.000000
0.7600	1.251768	0.000000
0.7630	1.251666	0.000000
0.7660	1.251566	0.000000
0.7690	1.251466	0.000000
0.7720	1.251368	0.000000
0.7750	1.251271	0.000000
0.7780	1.251175	0.000000
0.7810	1.251080	0.000000
0.7840	1.250987	0.000000
0.7870	1.250894	0.000000
0.7900	1.250803	0.000000
0.7930	1.250712	0.000000
0.7960	1.250623	0.000000
0.7990	1.250534	0.000000
0.8020	1.250447	0.000000
0.8050	1.250361	0.000000
0.8080	1.250275	0.000000
0.8110	1.250191	0.000000
0.8140	1.250108	0.000000
0.8170	1.250025	0.000000
0.8200	1.249943	0.000000
0.8230	1.249863	0.000000
0.8260	1.249783	0.000000
0.8290	1.249704	0.000000
0.8320	1.249626	0.000000
0.8350	1.249549	0.000000
0.8380	1.249473	0.000000
0.8410	1.249397	0.000000
0.8440	1.249322	0.000000
0.8470	1.249249	0.000000
0.8500	1.249175	0.000000
0.8530	1.249103	0.000000
0.8560	1.249032	0.000000
0.8590	1.248961	0.000000
0.8620	1.248891	0.000000
0.8650	1.248822	0.000000
0.8680	1.248753	0.000000
0.8710	1.248685	0.000000
0.8740	1.248618	0.000000
0.8770	1.248552	0.000000
0.8800	1.248486	0.000000
0.8830	1.248421	0.000000
0.8860	1.248357	0.000000
0.8890	1.248293	0.000000
0.8920	1.248230	0.000000
0.8950	1.248168	0.000000
0.8980	1.248106	0.000000
0.9010	1.248045	0.000000
0.9040	1.247984	0.000000
0.9070	1.247924	0.000000
0.9100	1.247865	0.000000
0.9130	1.247806	0.000000
0.9160	1.247748	0.000000
0.9190	1.247691	0.000000
0.9220	1.247634	0.000000
0.9250	1.247577	0.000000
0.9280	1.247522	0.000000
0.9310	1.247466	0.000000
0.9340	1.247411	0.000000
0.9370	1.247357	0.000000
0.9400	1.247304	0.000000
0.9430	1.247250	0.000000
0.9460	1.247198	0.000000
0.9490	1.247146	0.000000
0.9520	1.247094	0.000000
0.9550	1.247043	0.000000
0.9580	1.246992	0.000000
0.9610	1.246942	0.000000
0.9640	1.246892	0.000000
0.9670	1.246843	0.000000
0.9700	1.246794	0.000000
0.9730	1.246746	0.000000
0.9760	1.246698	0.000000
0.9790	1.246650	0.000000
0.9820	1.246603	0.000000
0.9850	1.246557	0.000000
0.9880	1.246511	0.000000
0.9910	1.246465	0.000000
0.9940	1.246420	0.000000
0.9970	1.246375	0.000000
1.0000	1.246330	0.000000
1.0075	1.246221	0.000000
1.0150	1.246114	0.000000
1.0225	1.246010	0.000000
1.0300	1.245907	0.000000
1.0375	1.245807	0.000000
1.0450	1.245710	0.000000
1.0525	1.245614	0.000000
1.0600	1.245520	0.000000
1.0675	1.245428	0.000000
1.0750	1.245339	0.000000
1.0825	1.245251	0.000000
1.0900	1.245165	0.000000
1.0975	1.245080	0.000000
1.1050	1.244998	0.000000
1.1125	1.244917	0.000000
1.1200	1.244838	0.000000
1.1275	1.244760	0.000000
1.1350	1.244684	0.000000
1.1425	1.244610	0.000000
1.1500	1.244537	0.000000
1.1575	1.244465	0.000000
1.1650	1.244395	0.000000
1.1725	1.244326	0.000000
1.1800	1.244258	0.000000
1.1875	1.244192	0.000000
1.1950	1.244127	0.000000
1.2025	1.244063	0.000000
1.2100	1.244001	0.000000
1.2175	1.243939	0.000000
1.2250	1.243879	0.000000
1.2325	1.243820	0.000000
1.2400	1.243761	0.000000
1.2475	1.243704	0.000000
1.2550	1.243648	0.000000
1.2625	1.243593	0.000000
1.2700	1.243539	0.000000
1.2775	1.243486	0.000000
1.2850	1.243434	0.000000
1.2925	1.243383	0.000000
1.3000	1.243333	0.000000
1.3075	1.243283	0.000000
1.3150	1.243234	0.000000
1.3225	1.243187	0.000000
1.3300	1.243140	0.000000
1.3375	1.243093	0.000000
1.3450	1.243048	0.000000
1.3525	1.243003	0.000000
1.3600	1.242959	0.000000
1.3675	1.242916	0.000000
1.3750	1.242874	0.000000
1.3825	1.242832	0.000000
1.3900	1.242791	0.000000
1.3975	1.242751	0.000000
1.4050	1.242711	0.000000
1.4125	1.242672	0.000000
1.4200	1.242633	0.000000
1.4275	1.242595	0.000000
1.4350	1.242558	0.000000
1.4425	1.242521	0.000000
1.4500	1.242485	0.000000
1.4575	1.242449	0.000000
1.4650	1.242414	0.000000
1.4725	1.242380	0.000000
1.4800	1.242346	0.000000
1.4875	1.242312	0.000000
1.4950	1.242279	0.000000
1.5025	1.242247	0.000000
1.5100	1.242215	0.000000
1.5175	1.242183	0.000000
1.5250	1.242152	0.000000
1.5325	1.242122	0.000000
1.5400	1.242092	0.000000
1.5475	1.242062	0.000000
1.5550	1.242033	0.000000
1.5625	1.242004	0.000000
1.5700	1.241975	0.000000
1.5775	1.241947	0.000000
1.5850	1.241920	0.000000
1.5925	1.241893	0.000000
1.6000	1.241866	0.000000
1.6075	1.241839	0.000000
1.6150	1.241813	0.000000
1.6225	1.241787	0.000000
1.6300	1.241762	0.000000
1.6375	1.241737	0.000000
1.6450	1.241712	0.000000
1.6525	1.241688	0.000000
1.6600	1.241664	0.000000
1.6675	1.241640	0.000000
1.6750	1.241617	0.000000
1.6825	1.241594	0.000000
1.6900	1.241571	0.000000
