Material: main / SnSe / Guo-beta
Optical constants. Z. Guo, H. Gu, Y. Yu, Z. Wei, S. Liu. Broadband and incident-angle-modulation near-infrared polarizers based on optically anisotropic SnSe, Nanomaterials, 13, 134 (2022) (Numerical data kindly provided by Zhengfeng Guo)
Comments: nβ, kβ; room temperature.
wavelength (um)	n	k
0.1930	1.068893	0.897015
0.1960	1.085445	0.900834
0.1990	1.099753	0.902978
0.2020	1.111676	0.904007
0.2050	1.121191	0.904470
0.2080	1.128386	0.904879
0.2110	1.133442	0.905687
0.2140	1.136608	0.907273
0.2170	1.138182	0.909938
0.2200	1.138488	0.913899
0.2230	1.137859	0.919300
0.2260	1.136621	0.926211
0.2290	1.135082	0.934645
0.2320	1.133523	0.944561
0.2350	1.132192	0.955882
0.2380	1.131305	0.968496
0.2410	1.131042	0.982272
0.2440	1.131547	0.997065
0.2470	1.132934	1.012720
0.2500	1.135285	1.029082
0.2530	1.138656	1.045997
0.2560	1.143079	1.063318
0.2590	1.148568	1.080905
0.2620	1.155116	1.098625
0.2650	1.162706	1.116358
0.2680	1.171306	1.133994
0.2710	1.180877	1.151432
0.2740	1.191372	1.168583
0.2770	1.202739	1.185367
0.2800	1.214920	1.201714
0.2830	1.227856	1.217562
0.2860	1.241485	1.232859
0.2890	1.255742	1.247560
0.2920	1.270564	1.261627
0.2950	1.285884	1.275029
0.2980	1.301639	1.287743
0.3010	1.317764	1.299751
0.3040	1.334195	1.311041
0.3070	1.350871	1.321605
0.3100	1.367730	1.331444
0.3130	1.384714	1.340561
0.3160	1.401766	1.348965
0.3190	1.418832	1.356668
0.3220	1.435859	1.363687
0.3250	1.452799	1.370044
0.3280	1.469606	1.375762
0.3310	1.486238	1.380870
0.3340	1.502655	1.385396
0.3370	1.518823	1.389374
0.3400	1.534710	1.392839
0.3430	1.550287	1.395825
0.3460	1.565531	1.398371
0.3490	1.580422	1.400515
0.3520	1.594943	1.402296
0.3550	1.609081	1.403752
0.3580	1.622828	1.404923
0.3610	1.636177	1.405846
0.3640	1.649127	1.406560
0.3670	1.661677	1.407101
0.3700	1.673832	1.407504
0.3730	1.685597	1.407803
0.3760	1.696982	1.408030
0.3790	1.707997	1.408217
0.3820	1.718656	1.408391
0.3850	1.728973	1.408579
0.3880	1.738963	1.408806
0.3910	1.748646	1.409095
0.3940	1.758040	1.409467
0.3970	1.767163	1.409939
0.4000	1.776037	1.410529
0.4030	1.784683	1.411251
0.4060	1.793121	1.412117
0.4090	1.801372	1.413139
0.4120	1.809460	1.414325
0.4150	1.817404	1.415682
0.4180	1.825226	1.417217
0.4210	1.832947	1.418931
0.4240	1.840588	1.420829
0.4270	1.848169	1.422910
0.4300	1.855709	1.425175
0.4330	1.863229	1.427621
0.4360	1.870746	1.430246
0.4390	1.878278	1.433046
0.4420	1.885843	1.436015
0.4450	1.893457	1.439148
0.4480	1.901135	1.442438
0.4510	1.908894	1.445878
0.4540	1.916746	1.449458
0.4570	1.924707	1.453169
0.4600	1.932788	1.457003
0.4630	1.941003	1.460948
0.4660	1.949362	1.464992
0.4690	1.957878	1.469121
0.4720	1.966555	1.473322
0.4750	1.975398	1.477584
0.4780	1.984416	1.481896
0.4810	1.993614	1.486247
0.4840	2.002999	1.490624
0.4870	2.012575	1.495016
0.4900	2.022348	1.499410
0.4930	2.032320	1.503793
0.4960	2.042497	1.508152
0.4990	2.052879	1.512476
0.5020	2.063468	1.516749
0.5050	2.074267	1.520960
0.5080	2.085274	1.525095
0.5110	2.096491	1.529141
0.5140	2.107915	1.533085
0.5170	2.119545	1.536914
0.5200	2.131379	1.540614
0.5230	2.143414	1.544174
0.5260	2.155645	1.547579
0.5290	2.168069	1.550819
0.5320	2.180679	1.553879
0.5350	2.193471	1.556749
0.5380	2.206437	1.559416
0.5410	2.219571	1.561868
0.5440	2.232863	1.564094
0.5470	2.246306	1.566084
0.5500	2.259889	1.567826
0.5530	2.273604	1.569311
0.5560	2.287438	1.570529
0.5590	2.301381	1.571471
0.5620	2.315421	1.572130
0.5650	2.329543	1.572496
0.5680	2.343736	1.572564
0.5710	2.357986	1.572326
0.5740	2.372277	1.571778
0.5770	2.386594	1.570916
0.5800	2.400923	1.569735
0.5830	2.415248	1.568233
0.5860	2.429552	1.566409
0.5890	2.443818	1.564263
0.5920	2.458031	1.561796
0.5950	2.472174	1.559008
0.5980	2.486230	1.555905
0.6010	2.500182	1.552491
0.6040	2.514015	1.548772
0.6070	2.527713	1.544754
0.6100	2.541259	1.540447
0.6130	2.554640	1.535861
0.6160	2.567842	1.531006
0.6190	2.580851	1.525896
0.6220	2.593655	1.520543
0.6250	2.606244	1.514962
0.6280	2.618609	1.509169
0.6310	2.630740	1.503181
0.6340	2.642633	1.497013
0.6370	2.654281	1.490685
0.6400	2.665682	1.484213
0.6430	2.676833	1.477615
0.6460	2.687736	1.470912
0.6490	2.698393	1.464119
0.6520	2.708807	1.457255
0.6550	2.718984	1.450337
0.6580	2.728932	1.443381
0.6610	2.738659	1.436403
0.6640	2.748176	1.429417
0.6670	2.757494	1.422436
0.6700	2.766628	1.415472
0.6730	2.775591	1.408535
0.6760	2.784400	1.401633
0.6790	2.793069	1.394775
0.6820	2.801616	1.387964
0.6850	2.810059	1.381205
0.6880	2.818417	1.374499
0.6910	2.826707	1.367847
0.6940	2.834951	1.361247
0.6970	2.843168	1.354695
0.7000	2.851381	1.348186
0.7030	2.859614	1.341712
0.7060	2.867894	1.335263
0.7090	2.876255	1.328825
0.7120	2.884748	1.322374
0.7150	2.893479	1.315831
0.7180	2.902369	1.308959
0.7210	2.911252	1.301775
0.7240	2.920073	1.294312
0.7270	2.928798	1.286596
0.7300	2.937402	1.278644
0.7330	2.945868	1.270475
0.7360	2.954180	1.262102
0.7390	2.962326	1.253541
0.7420	2.970296	1.244804
0.7450	2.978081	1.235903
0.7480	2.985676	1.226851
0.7510	2.993073	1.217659
0.7540	3.000268	1.208338
0.7570	3.007256	1.198897
0.7600	3.014036	1.189349
0.7630	3.020603	1.179701
0.7660	3.026956	1.169964
0.7690	3.033094	1.160148
0.7720	3.039016	1.150259
0.7750	3.044721	1.140309
0.7780	3.050210	1.130304
0.7810	3.055482	1.120252
0.7840	3.060539	1.110162
0.7870	3.065381	1.100041
0.7900	3.070010	1.089896
0.7930	3.074428	1.079734
0.7960	3.078636	1.069562
0.7990	3.082636	1.059385
0.8020	3.086431	1.049211
0.8050	3.090024	1.039044
0.8080	3.093417	1.028892
0.8110	3.096612	1.018758
0.8140	3.099613	1.008648
0.8170	3.102423	0.998567
0.8200	3.105046	0.988520
0.8230	3.107483	0.978511
0.8260	3.109740	0.968543
0.8290	3.111818	0.958622
0.8320	3.113722	0.948751
0.8350	3.115456	0.938933
0.8380	3.117022	0.929172
0.8410	3.118425	0.919471
0.8440	3.119668	0.909832
0.8470	3.120754	0.900259
0.8500	3.121688	0.890754
0.8530	3.122473	0.881319
0.8560	3.123112	0.871957
0.8590	3.123610	0.862670
0.8620	3.123970	0.853460
0.8650	3.124195	0.844328
0.8680	3.124289	0.835275
0.8710	3.124255	0.826305
0.8740	3.124098	0.817417
0.8770	3.123820	0.808613
0.8800	3.123425	0.799894
0.8830	3.122916	0.791261
0.8860	3.122297	0.782715
0.8890	3.121570	0.774256
0.8920	3.120739	0.765886
0.8950	3.119807	0.757605
0.8980	3.118778	0.749413
0.9010	3.117653	0.741310
0.9040	3.116437	0.733298
0.9070	3.115132	0.725375
0.9100	3.113740	0.717543
0.9130	3.112266	0.709801
0.9160	3.110710	0.702149
0.9190	3.109077	0.694587
0.9220	3.107368	0.687116
0.9250	3.105587	0.679734
0.9280	3.103736	0.672442
0.9310	3.101816	0.665240
0.9340	3.099832	0.658126
0.9370	3.097784	0.651101
0.9400	3.095675	0.644164
0.9430	3.093507	0.637315
0.9460	3.091283	0.630553
0.9490	3.089004	0.623878
0.9520	3.086673	0.617289
0.9550	3.084292	0.610786
0.9580	3.081861	0.604368
0.9610	3.079385	0.598034
0.9640	3.076863	0.591784
0.9670	3.074298	0.585617
0.9700	3.071692	0.579532
0.9730	3.069046	0.573529
0.9760	3.066363	0.567607
0.9790	3.063642	0.561765
0.9820	3.060887	0.556002
0.9850	3.058098	0.550319
0.9880	3.055277	0.544713
0.9910	3.052426	0.539184
0.9940	3.049545	0.533732
0.9970	3.046637	0.528355
1.0000	3.043701	0.523053
1.0075	3.036254	0.510121
1.0150	3.028667	0.497638
1.0225	3.020956	0.485593
1.0300	3.013137	0.473974
1.0375	3.005225	0.462766
1.0450	2.997234	0.451959
1.0525	2.989176	0.441541
1.0600	2.981063	0.431498
1.0675	2.972904	0.421820
1.0750	2.964711	0.412495
1.0825	2.956492	0.403511
1.0900	2.948256	0.394858
1.0975	2.940011	0.386525
1.1050	2.931763	0.378501
1.1125	2.923519	0.370776
1.1200	2.915286	0.363341
1.1275	2.907069	0.356185
1.1350	2.898875	0.349299
1.1425	2.890706	0.342674
1.1500	2.882569	0.336301
1.1575	2.874466	0.330171
1.1650	2.866403	0.324277
1.1725	2.858383	0.318608
1.1800	2.850410	0.313158
1.1875	2.842485	0.307919
1.1950	2.834614	0.302883
1.2025	2.826797	0.298042
1.2100	2.819038	0.293390
1.2175	2.811340	0.288919
1.2250	2.803704	0.284622
1.2325	2.796133	0.280492
1.2400	2.788628	0.276523
1.2475	2.781192	0.272708
1.2550	2.773826	0.269040
1.2625	2.766532	0.265514
1.2700	2.759311	0.262122
1.2775	2.752166	0.258858
1.2850	2.745097	0.255717
1.2925	2.738106	0.252692
1.3000	2.731193	0.249776
1.3075	2.724360	0.246965
1.3150	2.717608	0.244251
1.3225	2.710939	0.241628
1.3300	2.704352	0.239091
1.3375	2.697848	0.236634
1.3450	2.691429	0.234249
1.3525	2.685094	0.231932
1.3600	2.678845	0.229676
1.3675	2.672681	0.227474
1.3750	2.666602	0.225320
1.3825	2.660610	0.223208
1.3900	2.654703	0.221131
1.3975	2.648881	0.219083
1.4050	2.643145	0.217056
1.4125	2.637493	0.215045
1.4200	2.631924	0.213041
1.4275	2.626438	0.211039
1.4350	2.621033	0.209030
1.4425	2.615708	0.207008
1.4500	2.610460	0.204965
1.4575	2.605288	0.202894
1.4650	2.600189	0.200786
1.4725	2.595160	0.198635
1.4800	2.590199	0.196431
1.4875	2.585299	0.194168
1.4950	2.580459	0.191836
1.5025	2.575672	0.189428
1.5100	2.570934	0.186936
1.5175	2.566238	0.184351
1.5250	2.561578	0.181665
1.5325	2.556946	0.178870
1.5400	2.552334	0.175958
1.5475	2.547733	0.172922
1.5550	2.543133	0.169752
1.5625	2.538524	0.166444
1.5700	2.533894	0.162988
1.5775	2.529231	0.159380
1.5850	2.524520	0.155613
1.5925	2.519748	0.151682
1.6000	2.514899	0.147583
1.6075	2.509955	0.143314
1.6150	2.504901	0.138872
1.6225	2.499716	0.134257
1.6300	2.494383	0.129470
1.6375	2.488880	0.124514
1.6450	2.483187	0.119394
1.6525	2.477283	0.114116
1.6600	2.471147	0.108690
1.6675	2.464758	0.103129
1.6750	2.458093	0.097446
1.6825	2.451135	0.091661
1.6900	2.443866	0.085793
