Material: main / SnSe / Guo-gamma
Optical constants. Z. Guo, H. Gu, Y. Yu, Z. Wei, S. Liu. Broadband and incident-angle-modulation near-infrared polarizers based on optically anisotropic SnSe, Nanomaterials, 13, 134 (2022) (Numerical data kindly provided by Zhengfeng Guo)
Comments: nγ, kγ; room temperature.
wavelength (um)	n	k
0.1930	0.923594	0.779495
0.1960	0.921629	0.787496
0.1990	0.919619	0.796042
0.2020	0.917599	0.805138
0.2050	0.915604	0.814783
0.2080	0.913671	0.824976
0.2110	0.911835	0.835714
0.2140	0.910134	0.846992
0.2170	0.908603	0.858802
0.2200	0.907280	0.871137
0.2230	0.906201	0.883983
0.2260	0.905403	0.897327
0.2290	0.904920	0.911152
0.2320	0.904790	0.925440
0.2350	0.905045	0.940169
0.2380	0.905720	0.955316
0.2410	0.906847	0.970854
0.2440	0.908457	0.986753
0.2470	0.910581	1.002983
0.2500	0.913246	1.019508
0.2530	0.916478	1.036292
0.2560	0.920302	1.053296
0.2590	0.924738	1.070476
0.2620	0.929805	1.087789
0.2650	0.935519	1.105186
0.2680	0.941891	1.122618
0.2710	0.948930	1.140033
0.2740	0.956639	1.157376
0.2770	0.965017	1.174591
0.2800	0.974057	1.191621
0.2830	0.983745	1.208406
0.2860	0.994064	1.224889
0.2890	1.004986	1.241011
0.2920	1.016478	1.256715
0.2950	1.028500	1.271946
0.2980	1.041004	1.286653
0.3010	1.053934	1.300791
0.3040	1.067226	1.314319
0.3070	1.080814	1.327204
0.3100	1.094621	1.339424
0.3130	1.108571	1.350963
0.3160	1.122582	1.361820
0.3190	1.136573	1.372002
0.3220	1.150464	1.381528
0.3250	1.164176	1.390432
0.3280	1.177638	1.398754
0.3310	1.190783	1.406548
0.3340	1.203556	1.413876
0.3370	1.215910	1.420805
0.3400	1.227808	1.427411
0.3430	1.239226	1.433770
0.3460	1.250152	1.439963
0.3490	1.260585	1.446066
0.3520	1.270534	1.452156
0.3550	1.280019	1.458305
0.3580	1.289070	1.464580
0.3610	1.297722	1.471040
0.3640	1.306019	1.477739
0.3670	1.314009	1.484722
0.3700	1.321741	1.492026
0.3730	1.329270	1.499681
0.3760	1.336650	1.507709
0.3790	1.343935	1.516127
0.3820	1.351179	1.524941
0.3850	1.358433	1.534155
0.3880	1.365747	1.543767
0.3910	1.373168	1.553768
0.3940	1.380741	1.564147
0.3970	1.388507	1.574888
0.4000	1.396504	1.585975
0.4030	1.404768	1.597386
0.4060	1.413329	1.609100
0.4090	1.422218	1.621092
0.4120	1.431460	1.633338
0.4150	1.441079	1.645811
0.4180	1.451095	1.658486
0.4210	1.461528	1.671336
0.4240	1.472393	1.684333
0.4270	1.483705	1.697451
0.4300	1.495476	1.710661
0.4330	1.507717	1.723938
0.4360	1.520438	1.737253
0.4390	1.533646	1.750581
0.4420	1.547347	1.763893
0.4450	1.561547	1.777163
0.4480	1.576250	1.790365
0.4510	1.591458	1.803470
0.4540	1.607173	1.816454
0.4570	1.623396	1.829289
0.4600	1.640126	1.841947
0.4630	1.657361	1.854403
0.4660	1.675099	1.866629
0.4690	1.693336	1.878597
0.4720	1.712066	1.890281
0.4750	1.731283	1.901652
0.4780	1.750979	1.912684
0.4810	1.771144	1.923349
0.4840	1.791767	1.933619
0.4870	1.812836	1.943465
0.4900	1.834336	1.952862
0.4930	1.856250	1.961781
0.4960	1.878560	1.970196
0.4990	1.901246	1.978081
0.5020	1.924285	1.985409
0.5050	1.947651	1.992157
0.5080	1.971319	1.998301
0.5110	1.995259	2.003820
0.5140	2.019439	2.008693
0.5170	2.043826	2.012902
0.5200	2.068385	2.016432
0.5230	2.093079	2.019269
0.5260	2.117869	2.021403
0.5290	2.142715	2.022828
0.5320	2.167576	2.023539
0.5350	2.192410	2.023536
0.5380	2.217177	2.022822
0.5410	2.241835	2.021406
0.5440	2.266342	2.019298
0.5470	2.290660	2.016513
0.5500	2.314750	2.013069
0.5530	2.338578	2.008988
0.5560	2.362110	2.004296
0.5590	2.385316	1.999019
0.5620	2.408169	1.993188
0.5650	2.430646	1.986836
0.5680	2.452727	1.979995
0.5710	2.474398	1.972699
0.5740	2.495646	1.964984
0.5770	2.516463	1.956883
0.5800	2.536846	1.948431
0.5830	2.556792	1.939658
0.5860	2.576306	1.930598
0.5890	2.595391	1.921278
0.5920	2.614055	1.911725
0.5950	2.632308	1.901964
0.5980	2.650161	1.892017
0.6010	2.667625	1.881902
0.6040	2.684714	1.871638
0.6070	2.701441	1.861237
0.6100	2.717820	1.850713
0.6130	2.733864	1.840074
0.6160	2.749584	1.829328
0.6190	2.764993	1.818482
0.6220	2.780102	1.807539
0.6250	2.794921	1.796502
0.6280	2.809458	1.785372
0.6310	2.823721	1.774152
0.6340	2.837715	1.762841
0.6370	2.851447	1.751439
0.6400	2.864919	1.739946
0.6430	2.878135	1.728361
0.6460	2.891097	1.716684
0.6490	2.903806	1.704914
0.6520	2.916261	1.693053
0.6550	2.928462	1.681099
0.6580	2.940408	1.669055
0.6610	2.952098	1.656922
0.6640	2.963529	1.644701
0.6670	2.974699	1.632396
0.6700	2.985606	1.620010
0.6730	2.996248	1.607546
0.6760	3.006620	1.595008
0.6790	3.016722	1.582402
0.6820	3.026551	1.569732
0.6850	3.036106	1.557005
0.6880	3.045383	1.544226
0.6910	3.054382	1.531402
0.6940	3.063101	1.518539
0.6970	3.071539	1.505645
0.7000	3.079697	1.492726
0.7030	3.087574	1.479790
0.7060	3.095170	1.466845
0.7090	3.102486	1.453897
0.7120	3.109524	1.440955
0.7150	3.116284	1.428027
0.7180	3.122769	1.415119
0.7210	3.128982	1.402239
0.7240	3.134924	1.389394
0.7270	3.140599	1.376593
0.7300	3.146011	1.363840
0.7330	3.151163	1.351145
0.7360	3.156059	1.338513
0.7390	3.160704	1.325950
0.7420	3.165102	1.313463
0.7450	3.169258	1.301058
0.7480	3.173177	1.288740
0.7510	3.176864	1.276515
0.7540	3.180326	1.264388
0.7570	3.183566	1.252363
0.7600	3.186592	1.240446
0.7630	3.189409	1.228641
0.7660	3.192024	1.216951
0.7690	3.194441	1.205380
0.7720	3.196668	1.193932
0.7750	3.198711	1.182610
0.7780	3.200576	1.171417
0.7810	3.202270	1.160354
0.7840	3.203799	1.149425
0.7870	3.205169	1.138631
0.7900	3.206388	1.127975
0.7930	3.207463	1.117457
0.7960	3.208400	1.107079
0.7990	3.209207	1.096842
0.8020	3.209891	1.086745
0.8050	3.210464	1.076789
0.8080	3.210939	1.066969
0.8110	3.211317	1.057262
0.8140	3.211588	1.047671
0.8170	3.211751	1.038199
0.8200	3.211808	1.028847
0.8230	3.211763	1.019617
0.8260	3.211617	1.010511
0.8290	3.211376	1.001530
0.8320	3.211041	0.992674
0.8350	3.210617	0.983944
0.8380	3.210108	0.975340
0.8410	3.209517	0.966862
0.8440	3.208848	0.958511
0.8470	3.208105	0.950286
0.8500	3.207291	0.942186
0.8530	3.206410	0.934211
0.8560	3.205465	0.926361
0.8590	3.204461	0.918635
0.8620	3.203399	0.911032
0.8650	3.202285	0.903552
0.8680	3.201120	0.896192
0.8710	3.199908	0.888953
0.8740	3.198652	0.881833
0.8770	3.197356	0.874831
0.8800	3.196021	0.867946
0.8830	3.194652	0.861176
0.8860	3.193249	0.854521
0.8890	3.191818	0.847978
0.8920	3.190359	0.841547
0.8950	3.188876	0.835226
0.8980	3.187371	0.829014
0.9010	3.185846	0.822909
0.9040	3.184304	0.816910
0.9070	3.182746	0.811014
0.9100	3.181176	0.805222
0.9130	3.179595	0.799530
0.9160	3.178006	0.793938
0.9190	3.176409	0.788444
0.9220	3.174809	0.783045
0.9250	3.173205	0.777742
0.9280	3.171600	0.772532
0.9310	3.169996	0.767413
0.9340	3.168394	0.762384
0.9370	3.166796	0.757443
0.9400	3.165204	0.752588
0.9430	3.163620	0.747819
0.9460	3.162044	0.743132
0.9490	3.160479	0.738527
0.9520	3.158925	0.734002
0.9550	3.157385	0.729556
0.9580	3.155859	0.725185
0.9610	3.154349	0.720890
0.9640	3.152857	0.716667
0.9670	3.151382	0.712517
0.9700	3.149928	0.708436
0.9730	3.148494	0.704423
0.9760	3.147083	0.700476
0.9790	3.145694	0.696594
0.9820	3.144330	0.692775
0.9850	3.142992	0.689018
0.9880	3.141679	0.685319
0.9910	3.140394	0.681679
0.9940	3.139138	0.678094
0.9970	3.137911	0.674564
1.0000	3.136715	0.671086
1.0075	3.133862	0.662607
1.0150	3.131219	0.654416
1.0225	3.128798	0.646481
1.0300	3.126612	0.638772
1.0375	3.124670	0.631256
1.0450	3.122982	0.623898
1.0525	3.121555	0.616662
1.0600	3.120395	0.609510
1.0675	3.119506	0.602399
1.0750	3.118887	0.595287
1.0825	3.118534	0.588126
1.0900	3.118440	0.580865
1.0975	3.118588	0.573451
1.1050	3.118958	0.565829
1.1125	3.119517	0.557939
1.1200	3.120223	0.549724
1.1275	3.121020	0.541123
1.1350	3.121839	0.532083
1.1425	3.122593	0.522555
1.1500	3.123178	0.512503
1.1575	3.123473	0.501908
1.1650	3.123343	0.490773
1.1725	3.122640	0.479135
1.1800	3.121214	0.467065
1.1875	3.118923	0.454677
1.1950	3.115642	0.442130
1.2025	3.111283	0.429622
1.2100	3.105805	0.417382
1.2175	3.099232	0.405659
1.2250	3.091653	0.394700
1.2325	3.083226	0.384729
1.2400	3.074168	0.375927
1.2475	3.064747	0.368421
1.2550	3.055261	0.362268
1.2625	3.046037	0.357461
1.2700	3.037457	0.353925
1.2775	3.030112	0.351230
1.2850	3.023694	0.348539
1.2925	3.017820	0.345840
1.3000	3.012351	0.343145
1.3075	3.007206	0.340463
1.3150	3.002332	0.337796
1.3225	2.997688	0.335147
1.3300	2.993246	0.332517
1.3375	2.988981	0.329905
1.3450	2.984874	0.327312
1.3525	2.980911	0.324738
1.3600	2.977078	0.322182
1.3675	2.973363	0.319642
1.3750	2.969757	0.317119
1.3825	2.966252	0.314611
1.3900	2.962838	0.312118
1.3975	2.959511	0.309637
1.4050	2.956264	0.307170
1.4125	2.953091	0.304714
1.4200	2.949987	0.302269
1.4275	2.946948	0.299834
1.4350	2.943970	0.297407
1.4425	2.941049	0.294989
1.4500	2.938182	0.292578
1.4575	2.935366	0.290172
1.4650	2.932596	0.287770
1.4725	2.929869	0.285371
1.4800	2.927182	0.282975
1.4875	2.924531	0.280581
1.4950	2.921916	0.278189
1.5025	2.919331	0.275798
1.5100	2.916775	0.273409
1.5175	2.914247	0.271020
1.5250	2.911743	0.268632
1.5325	2.909263	0.266243
1.5400	2.906802	0.263855
1.5475	2.904361	0.261466
1.5550	2.901937	0.259077
1.5625	2.899529	0.256687
1.5700	2.897135	0.254296
1.5775	2.894754	0.251904
1.5850	2.892383	0.249512
1.5925	2.890023	0.247119
1.6000	2.887672	0.244724
1.6075	2.885328	0.242329
1.6150	2.882991	0.239934
1.6225	2.880660	0.237537
1.6300	2.878334	0.235140
1.6375	2.876012	0.232743
1.6450	2.873694	0.230345
1.6525	2.871380	0.227948
1.6600	2.869069	0.225550
1.6675	2.866762	0.223153
1.6750	2.864458	0.220756
1.6825	2.862160	0.218360
1.6900	2.859868	0.215965
