Material: main / Y3Al5O12 / Bond
Optical constants. W. L. Bond. Measurement of the refractive indices of several crystals , J. Appl. Phys. 36, 1674-1677 (1965)
Comments: Room temperature.
wavelength (um)	n
0.40	1.8650
0.45	1.8532
0.50	1.8450
0.60	1.8347
0.70	1.8285
0.80	1.8245
0.90	1.8222
1.00	1.8197
1.10	1.8170
1.20	1.8152
1.40	1.8121
1.60	1.8093
1.80	1.8065
2.00	1.8035
2.20	1.8004
2.40	1.7970
2.60	1.7935
2.80	1.7896
3.00	1.7855
3.20	1.7810
3.40	1.7764
3.60	1.7713
3.80	1.7659
4.00	1.7602
