Material: main / GaSe / Jansonas
Optical constants. G. Jansonas, R. Budriūnas, M. Vengris, A. Varanavičius. Interferometric measurements of nonlinear refractive index in the infrared spectral range, Opt. Express 30, 30507–30524 (2022)
Comments: Single crystal GaSe (o). Polar angle (θ): 0°. Electric field was parallel to the X dielectric axis. 170 fs and 190 fs at 2.2 μm and 3.2 μm, respectively. Estimated Kerr values were 35.2e-19 m2/W and 34.7e-19 m2/W at 2.2 μm and 3.2 μm, respectively. Fourier Interferometry.
Specs: {"n2_method": "FI", "pulse_duration": "170e-15 190e-15"}
wavelength (um)	n	2
2.2	21.4e-19
3.2	7.1e-19
