Material: main / ZnS / Bond
Optical constants. W. L. Bond. Measurement of the refractive indices of several crystals , J. Appl. Phys. 36, 1674-1677 (1965)
Comments: Room temperature.
wavelength (um)	n
0.45	2.4709
0.50	2.4208
0.60	2.3640
0.70	2.3333
0.80	2.3146
0.90	2.3026
1.00	2.2932
1.20	2.2822
1.40	2.2762
1.60	2.2716
1.80	2.2680
2.00	2.2653
2.20	2.2637
2.40	2.2604
