Material: glass / BK10 / White
Optical constants. W. T. White, W. L. Smith, D. Milam. Direct measurement of the nonlinear refractive-index coefficient Î³ at 355 nm in fused silica and in BK-10 glass, Opt. Lett. 9, 10 (1984)
Comments: Fused silica. Time-resolved interferometry.
Specs: {"n2_method": "TRI"}
wavelength (um)	n	2
0.355	1.7e-20
