Material: main / LaF3 / Milam
Optical constants. D. Milam, M. J. Weber, A. J. Glass. Nonlinear refractive index of fluoride crystals, Appl. Phys. Lett. 31, 822 (1977)
Comments: Hexagonal LaF3 (tysonite). Ordinary ray (o). 125 ps. Time-resolved interferometry.
Specs: {"n2_method": "TRI", "pulse_duration": "125e-12"}
wavelength (um)	n	2
1.064	3.95e-20
