Material: main / Si3N4 / Beliaev
Optical constants. L. Yu. Beliaev, E. Shkondin, A. V. Lavrinenko, O. Takayama. Optical, structural and composition properties of silicon nitride films deposited by reactive radio-frequency sputtering, low pressure and plasma-enhanced chemical vapor deposition, Thin Solid Films 763, 139568 (2022) (Numerical data kindly provided by Osamu Takayama)
Comments: 100 nm thick film deposited by plasma-enchased CVD with certain recipe as an example. Optical properties of SiN films produced by different deposition methods and process parameters can be found in the reference.
Specs: {"film_thickness": "100e-9", "substrate": "Si"}
wavelength (um)	n	k
0.21140	2.52782	1.59962E-01
0.21456	2.50770	1.42345E-01
0.21772	2.48823	1.26366E-01
0.22089	2.46941	1.11870E-01
0.22405	2.45124	9.87212E-02
0.22721	2.43370	8.67992E-02
0.23038	2.41679	7.59968E-02
0.23354	2.40047	6.62188E-02
0.23671	2.38475	5.73806E-02
0.23987	2.36960	4.94066E-02
0.24304	2.35501	4.22290E-02
0.24621	2.34095	3.57874E-02
0.24937	2.32742	3.00270E-02
0.25254	2.31440	2.48991E-02
0.25571	2.30188	2.03592E-02
0.25887	2.28984	1.63677E-02
0.26204	2.27828	1.28880E-02
0.26521	2.26718	9.88740E-03
0.26838	2.25654	7.33580E-03
0.27155	2.24634	5.20602E-03
0.27472	2.23660	3.47269E-03
0.27789	2.22730	2.11310E-03
0.28106	2.21845	1.10595E-03
0.28423	2.21007	4.31887E-04
0.28740	2.20217	7.28827E-05
0.29057	2.19484	0.00000E+00
0.29374	2.18811	0.00000E+00
0.29691	2.18183	0.00000E+00
0.30008	2.17592	0.00000E+00
0.30325	2.17034	0.00000E+00
0.30643	2.16506	0.00000E+00
0.30960	2.16004	0.00000E+00
0.31277	2.15527	0.00000E+00
0.31595	2.15073	0.00000E+00
0.31912	2.14639	0.00000E+00
0.32229	2.14224	0.00000E+00
0.32547	2.13828	0.00000E+00
0.32864	2.13448	0.00000E+00
0.33181	2.13083	0.00000E+00
0.33499	2.12734	0.00000E+00
0.33816	2.12398	0.00000E+00
0.34134	2.12075	0.00000E+00
0.34451	2.11764	0.00000E+00
0.34769	2.11465	0.00000E+00
0.35086	2.11177	0.00000E+00
0.35404	2.10900	0.00000E+00
0.35721	2.10632	0.00000E+00
0.36039	2.10373	0.00000E+00
0.36357	2.10123	0.00000E+00
0.36674	2.09882	0.00000E+00
0.36992	2.09648	0.00000E+00
0.37310	2.09422	0.00000E+00
0.37627	2.09204	0.00000E+00
0.37945	2.08992	0.00000E+00
0.38263	2.08787	0.00000E+00
0.38581	2.08589	0.00000E+00
0.38898	2.08396	0.00000E+00
0.39216	2.08209	0.00000E+00
0.39534	2.08028	0.00000E+00
0.39852	2.07852	0.00000E+00
0.40169	2.07681	0.00000E+00
0.40487	2.07515	0.00000E+00
0.40805	2.07354	0.00000E+00
0.41123	2.07197	0.00000E+00
0.41441	2.07045	0.00000E+00
0.41759	2.06897	0.00000E+00
0.42077	2.06753	0.00000E+00
0.42394	2.06612	0.00000E+00
0.42712	2.06476	0.00000E+00
0.43030	2.06343	0.00000E+00
0.43348	2.06213	0.00000E+00
0.43666	2.06087	0.00000E+00
0.43984	2.05964	0.00000E+00
0.44302	2.05844	0.00000E+00
0.44620	2.05727	0.00000E+00
0.44938	2.05613	0.00000E+00
0.45256	2.05501	0.00000E+00
0.45574	2.05393	0.00000E+00
0.45892	2.05287	0.00000E+00
0.46210	2.05183	0.00000E+00
0.46528	2.05082	0.00000E+00
0.46846	2.04984	0.00000E+00
0.47164	2.04887	0.00000E+00
0.47482	2.04793	0.00000E+00
0.47800	2.04701	0.00000E+00
0.48118	2.04611	0.00000E+00
0.48436	2.04523	0.00000E+00
0.48754	2.04437	0.00000E+00
0.49072	2.04353	0.00000E+00
0.49390	2.04271	0.00000E+00
0.49708	2.04190	0.00000E+00
0.50026	2.04111	0.00000E+00
0.50344	2.04034	0.00000E+00
0.50662	2.03959	0.00000E+00
0.50980	2.03885	0.00000E+00
0.51298	2.03813	0.00000E+00
0.51616	2.03742	0.00000E+00
0.51934	2.03672	0.00000E+00
0.52252	2.03604	0.00000E+00
0.52569	2.03538	0.00000E+00
0.52887	2.03472	0.00000E+00
0.53205	2.03408	0.00000E+00
0.53523	2.03346	0.00000E+00
0.53841	2.03284	0.00000E+00
0.54159	2.03224	0.00000E+00
0.54477	2.03165	0.00000E+00
0.54795	2.03106	0.00000E+00
0.55113	2.03050	0.00000E+00
0.55431	2.02994	0.00000E+00
0.55749	2.02939	0.00000E+00
0.56067	2.02885	0.00000E+00
0.56385	2.02832	0.00000E+00
0.56703	2.02781	0.00000E+00
0.57020	2.02730	0.00000E+00
0.57338	2.02680	0.00000E+00
0.57656	2.02631	0.00000E+00
0.57974	2.02583	0.00000E+00
0.58292	2.02535	0.00000E+00
0.58610	2.02489	0.00000E+00
0.58927	2.02443	0.00000E+00
0.59245	2.02398	0.00000E+00
0.59563	2.02354	0.00000E+00
0.59881	2.02311	0.00000E+00
0.60198	2.02268	0.00000E+00
0.60516	2.02226	0.00000E+00
0.60834	2.02185	0.00000E+00
0.61151	2.02145	0.00000E+00
0.61469	2.02105	0.00000E+00
0.61787	2.02066	0.00000E+00
0.62104	2.02028	0.00000E+00
0.62422	2.01990	0.00000E+00
0.62740	2.01953	0.00000E+00
0.63057	2.01916	0.00000E+00
0.63375	2.01880	0.00000E+00
0.63692	2.01844	0.00000E+00
0.64010	2.01810	0.00000E+00
0.64327	2.01775	0.00000E+00
0.64645	2.01742	0.00000E+00
0.64962	2.01708	0.00000E+00
0.65280	2.01676	0.00000E+00
0.65597	2.01643	0.00000E+00
0.65914	2.01612	0.00000E+00
0.66232	2.01580	0.00000E+00
0.66549	2.01550	0.00000E+00
0.66866	2.01519	0.00000E+00
0.67184	2.01490	0.00000E+00
0.67501	2.01460	0.00000E+00
0.67818	2.01431	0.00000E+00
0.68135	2.01403	0.00000E+00
0.68452	2.01375	0.00000E+00
0.68770	2.01347	0.00000E+00
0.69087	2.01320	0.00000E+00
0.69404	2.01293	0.00000E+00
0.69721	2.01266	0.00000E+00
0.70038	2.01240	0.00000E+00
0.70355	2.01215	0.00000E+00
0.70672	2.01189	0.00000E+00
0.70989	2.01164	0.00000E+00
0.71306	2.01140	0.00000E+00
0.71623	2.01115	0.00000E+00
0.71940	2.01091	0.00000E+00
0.72256	2.01068	0.00000E+00
0.72573	2.01044	0.00000E+00
0.72890	2.01022	0.00000E+00
0.73207	2.00999	0.00000E+00
0.73523	2.00977	0.00000E+00
0.73840	2.00955	0.00000E+00
0.74157	2.00933	0.00000E+00
0.74473	2.00911	0.00000E+00
0.74790	2.00890	0.00000E+00
0.75106	2.00869	0.00000E+00
0.75423	2.00849	0.00000E+00
0.75739	2.00828	0.00000E+00
0.76056	2.00808	0.00000E+00
0.76372	2.00789	0.00000E+00
0.76688	2.00769	0.00000E+00
0.77004	2.00750	0.00000E+00
0.77321	2.00731	0.00000E+00
0.77637	2.00712	0.00000E+00
0.77953	2.00693	0.00000E+00
0.78269	2.00675	0.00000E+00
0.78585	2.00657	0.00000E+00
0.78901	2.00639	0.00000E+00
0.79217	2.00622	0.00000E+00
0.79533	2.00604	0.00000E+00
0.79849	2.00587	0.00000E+00
0.80165	2.00570	0.00000E+00
0.80481	2.00553	0.00000E+00
0.80797	2.00537	0.00000E+00
0.81113	2.00520	0.00000E+00
0.81428	2.00504	0.00000E+00
0.81744	2.00488	0.00000E+00
0.82059	2.00473	0.00000E+00
0.82375	2.00457	0.00000E+00
0.82691	2.00442	0.00000E+00
0.83006	2.00426	0.00000E+00
0.83321	2.00411	0.00000E+00
0.83637	2.00397	0.00000E+00
0.83952	2.00382	0.00000E+00
0.84267	2.00367	0.00000E+00
0.84583	2.00353	0.00000E+00
0.84898	2.00339	0.00000E+00
0.85213	2.00325	0.00000E+00
0.85528	2.00311	0.00000E+00
0.85843	2.00298	0.00000E+00
0.86158	2.00284	0.00000E+00
0.86473	2.00271	0.00000E+00
0.86788	2.00258	0.00000E+00
0.87103	2.00244	0.00000E+00
0.87417	2.00232	0.00000E+00
0.87732	2.00219	0.00000E+00
0.88047	2.00206	0.00000E+00
0.88361	2.00194	0.00000E+00
0.88676	2.00181	0.00000E+00
0.88990	2.00169	0.00000E+00
0.89305	2.00157	0.00000E+00
0.89619	2.00145	0.00000E+00
0.89934	2.00134	0.00000E+00
0.90248	2.00122	0.00000E+00
0.90562	2.00110	0.00000E+00
0.90876	2.00099	0.00000E+00
0.91190	2.00088	0.00000E+00
0.91504	2.00076	0.00000E+00
0.91818	2.00065	0.00000E+00
0.92132	2.00055	0.00000E+00
0.92446	2.00044	0.00000E+00
0.92760	2.00033	0.00000E+00
0.93074	2.00022	0.00000E+00
0.93387	2.00012	0.00000E+00
0.93701	2.00002	0.00000E+00
0.94014	1.99991	0.00000E+00
0.94328	1.99981	0.00000E+00
0.94641	1.99971	0.00000E+00
0.94955	1.99961	0.00000E+00
0.95268	1.99951	0.00000E+00
0.95581	1.99942	0.00000E+00
0.95894	1.99932	0.00000E+00
0.96207	1.99923	0.00000E+00
0.96520	1.99913	0.00000E+00
0.96833	1.99904	0.00000E+00
0.97146	1.99895	0.00000E+00
0.97459	1.99885	0.00000E+00
0.97772	1.99876	0.00000E+00
0.98085	1.99867	0.00000E+00
0.98397	1.99859	0.00000E+00
0.98710	1.99850	0.00000E+00
0.99022	1.99841	0.00000E+00
0.99335	1.99832	0.00000E+00
0.99647	1.99824	0.00000E+00
0.99959	1.99816	0.00000E+00
1.01400	1.99778	0.00000E+00
1.02080	1.99760	0.00000E+00
1.02759	1.99743	0.00000E+00
1.03439	1.99727	0.00000E+00
1.04118	1.99710	0.00000E+00
1.04798	1.99694	0.00000E+00
1.05479	1.99679	0.00000E+00
1.06159	1.99663	0.00000E+00
1.06839	1.99648	0.00000E+00
1.07520	1.99634	0.00000E+00
1.08201	1.99619	0.00000E+00
1.08882	1.99605	0.00000E+00
1.09563	1.99591	0.00000E+00
1.10245	1.99577	0.00000E+00
1.10926	1.99564	0.00000E+00
1.11608	1.99551	0.00000E+00
1.12290	1.99538	0.00000E+00
1.12972	1.99525	0.00000E+00
1.13654	1.99512	0.00000E+00
1.14337	1.99500	0.00000E+00
1.15020	1.99488	0.00000E+00
1.15702	1.99476	0.00000E+00
1.16385	1.99465	0.00000E+00
1.17069	1.99453	0.00000E+00
1.17752	1.99442	0.00000E+00
1.18436	1.99431	0.00000E+00
1.19119	1.99420	0.00000E+00
1.19803	1.99410	0.00000E+00
1.20487	1.99399	0.00000E+00
1.21172	1.99389	0.00000E+00
1.21856	1.99379	0.00000E+00
1.22541	1.99369	0.00000E+00
1.23225	1.99359	0.00000E+00
1.23910	1.99349	0.00000E+00
1.24596	1.99340	0.00000E+00
1.25281	1.99331	0.00000E+00
1.25966	1.99322	0.00000E+00
1.26652	1.99313	0.00000E+00
1.27338	1.99304	0.00000E+00
1.28024	1.99295	0.00000E+00
1.28710	1.99286	0.00000E+00
1.29397	1.99278	0.00000E+00
1.30083	1.99270	0.00000E+00
1.30770	1.99261	0.00000E+00
1.31457	1.99253	0.00000E+00
1.32144	1.99245	0.00000E+00
1.32832	1.99238	0.00000E+00
1.33519	1.99230	0.00000E+00
1.34207	1.99222	0.00000E+00
1.34895	1.99215	0.00000E+00
1.35583	1.99208	0.00000E+00
1.36271	1.99200	0.00000E+00
1.36959	1.99193	0.00000E+00
1.37648	1.99186	0.00000E+00
1.38336	1.99179	0.00000E+00
1.39025	1.99173	0.00000E+00
1.39714	1.99166	0.00000E+00
1.40404	1.99159	0.00000E+00
1.41093	1.99153	0.00000E+00
1.41783	1.99146	0.00000E+00
1.42472	1.99140	0.00000E+00
1.43162	1.99134	0.00000E+00
1.43853	1.99128	0.00000E+00
1.44543	1.99122	0.00000E+00
1.45233	1.99116	0.00000E+00
1.45924	1.99110	0.00000E+00
1.46615	1.99104	0.00000E+00
1.47306	1.99098	0.00000E+00
1.47997	1.99093	0.00000E+00
1.48689	1.99087	0.00000E+00
1.49380	1.99082	0.00000E+00
1.50072	1.99076	0.00000E+00
1.50764	1.99071	0.00000E+00
1.51456	1.99066	0.00000E+00
1.52148	1.99060	0.00000E+00
1.52841	1.99055	0.00000E+00
1.53533	1.99050	0.00000E+00
1.54226	1.99045	0.00000E+00
1.54919	1.99040	0.00000E+00
1.55612	1.99035	0.00000E+00
1.56306	1.99031	0.00000E+00
1.56999	1.99026	0.00000E+00
1.57693	1.99021	0.00000E+00
1.58387	1.99017	0.00000E+00
1.59081	1.99012	0.00000E+00
1.59775	1.99008	0.00000E+00
1.60469	1.99003	0.00000E+00
1.61164	1.98999	0.00000E+00
1.61859	1.98994	0.00000E+00
1.62554	1.98990	0.00000E+00
1.63249	1.98986	0.00000E+00
1.63944	1.98982	0.00000E+00
1.64640	1.98978	0.00000E+00
1.65335	1.98974	0.00000E+00
1.66031	1.98970	0.00000E+00
1.66727	1.98966	0.00000E+00
1.67423	1.98962	0.00000E+00
1.68120	1.98958	0.00000E+00
1.68816	1.98954	0.00000E+00
