Material: main / KTiOPO4 / DeSalvo-beta
Optical constants. R. DeSalvo, A. A. Said, D. J. Hagan, E. W. Van Stryland, M. Sheik-Bahae. Infrared to ultraviolet measurements of two-photon absorption and n2 in wide bandgap solids, IEEE J. Quantum Electron. 32, 1324 (1996)
Comments: E∥Y (β). 30 ps. Z-scan.
Specs: {"n2_method": "Z-scan", "pulse_duration": "30e-12"}
wavelength (um)	n	2
1.064	2.40e-19
