Material: main / LiGaS2 / Jansonas-Y
Optical constants. G. Jansonas, R. Budriūnas, M. Vengris, A. Varanavičius. Interferometric measurements of nonlinear refractive index in the infrared spectral range, Opt. Express 30, 30507–30524 (2022)
Comments: Single crystal LiGaS2 (LGS). Polar angle (θ): 45°, azimuthal angle (φ): 0°. Electric field was parallel to the Y dielectric axis. 230 fs and 190 fs at 1.03 μm and 3.2 μm, respectively. Estimated Kerr values were 4.6e-19 and 4.9e-19 at 1.03 μm and 3.2 μm, respectively. Fourier Interferometry.
Specs: {"n2_method": "FI", "pulse_duration": "230e-15 190e-15"}
wavelength (um)	n	2
1.03	4.5e-19
3.2	5.6e-19
