Material: main / LiTaO3 / Bond-e
Optical constants. W. L. Bond. Measurement of the refractive indices of several crystals , J. Appl. Phys. 36, 1674-1677 (1965)
Comments: Extraordinary ray (e); Room temperature.
wavelength (um)	n
0.45	2.2468
0.50	2.2205
0.60	2.1878
0.70	2.1696
0.80	2.1578
0.90	2.1493
1.00	2.1432
1.20	2.1341
1.40	2.1273
1.60	2.1213
1.80	2.1170
2.00	2.1115
2.20	2.1053
2.40	2.0993
2.60	2.0936
2.80	2.0871
3.00	2.0799
3.20	2.0727
3.40	2.0649
3.60	2.0561
3.80	2.0473
4.00	2.0377
