Material: quantum dots / CdSe-ZnCdS / Aftenieva
Optical constants. O. Aftenieva, M. Sudzius, A. Prudnikau, M. Adnan, S. Sarkar, V. Lesnyak, K. Leo, A. Fery, T. A. F. König. Lasing by template-assisted self-assembled quantum dots, Adv. Opt. Mater. 2202226 (2023) (Numerical data kindly provided by Tobias König)
Comments: Cadmium selenide and zinc cadmium sulfide (CdSe/ZnCdS) core/shell quantum dots
wavelength (um)	n	k
0.3500	1.861580	0.123181
0.3520	1.858359	0.121092
0.3540	1.855190	0.119039
0.3560	1.852071	0.117024
0.3580	1.848999	0.115044
0.3600	1.845973	0.113100
0.3620	1.842989	0.111190
0.3640	1.840046	0.109314
0.3660	1.837142	0.107472
0.3680	1.834274	0.105662
0.3700	1.831441	0.103885
0.3720	1.828639	0.102140
0.3740	1.825865	0.100427
0.3760	1.823118	0.098747
0.3780	1.820395	0.097101
0.3800	1.817691	0.095489
0.3820	1.815005	0.093913
0.3840	1.812334	0.092376
0.3860	1.809675	0.090881
0.3880	1.807025	0.089433
0.3900	1.804384	0.088036
0.3920	1.801752	0.086697
0.3940	1.799129	0.085421
0.3960	1.796519	0.084217
0.3980	1.793926	0.083090
0.4000	1.791357	0.082047
0.4020	1.788822	0.081094
0.4040	1.786331	0.080233
0.4060	1.783897	0.079467
0.4080	1.781533	0.078793
0.4100	1.779253	0.078206
0.4120	1.777072	0.077700
0.4140	1.775002	0.077261
0.4160	1.773052	0.076876
0.4180	1.771231	0.076528
0.4200	1.769541	0.076196
0.4220	1.767983	0.075862
0.4240	1.766553	0.075506
0.4260	1.765240	0.075108
0.4280	1.764035	0.074652
0.4300	1.762919	0.074124
0.4320	1.761877	0.073513
0.4340	1.760888	0.072814
0.4360	1.759932	0.072024
0.4380	1.758991	0.071144
0.4400	1.758046	0.070180
0.4420	1.757080	0.069140
0.4440	1.756080	0.068035
0.4460	1.755036	0.066879
0.4480	1.753940	0.065685
0.4500	1.752787	0.064467
0.4520	1.751576	0.063241
0.4540	1.750309	0.062019
0.4560	1.748989	0.060813
0.4580	1.747621	0.059635
0.4600	1.746212	0.058491
0.4620	1.744770	0.057390
0.4640	1.743304	0.056336
0.4660	1.741821	0.055332
0.4680	1.740330	0.054379
0.4700	1.738838	0.053477
0.4720	1.737353	0.052625
0.4740	1.735880	0.051819
0.4760	1.734425	0.051056
0.4780	1.732992	0.050333
0.4800	1.731584	0.049646
0.4820	1.730203	0.048990
0.4840	1.728851	0.048361
0.4860	1.727528	0.047754
0.4880	1.726234	0.047166
0.4900	1.724969	0.046592
0.4920	1.723732	0.046031
0.4940	1.722521	0.045478
0.4960	1.721335	0.044930
0.4980	1.720170	0.044387
0.5000	1.719026	0.043846
0.5020	1.717899	0.043306
0.5040	1.716787	0.042766
0.5060	1.715689	0.042226
0.5080	1.714601	0.041685
0.5100	1.713521	0.041143
0.5120	1.712447	0.040602
0.5140	1.711377	0.040061
0.5160	1.710310	0.039521
0.5180	1.709242	0.038985
0.5200	1.708174	0.038453
0.5220	1.707103	0.037928
0.5240	1.706028	0.037410
0.5260	1.704950	0.036903
0.5280	1.703867	0.036408
0.5300	1.702779	0.035927
0.5320	1.701686	0.035462
0.5340	1.700589	0.035017
0.5360	1.699489	0.034593
0.5380	1.698386	0.034192
0.5400	1.697282	0.033816
0.5420	1.696179	0.033467
0.5440	1.695079	0.033148
0.5460	1.693984	0.032858
0.5480	1.692896	0.032601
0.5500	1.691819	0.032375
0.5520	1.690754	0.032184
0.5540	1.689706	0.032025
0.5560	1.688678	0.031900
0.5580	1.687672	0.031807
0.5600	1.686692	0.031747
0.5620	1.685740	0.031717
0.5640	1.684821	0.031716
0.5660	1.683936	0.031742
0.5680	1.683089	0.031792
0.5700	1.682282	0.031864
0.5720	1.681518	0.031955
0.5740	1.680797	0.032061
0.5760	1.680122	0.032178
0.5780	1.679494	0.032304
0.5800	1.678913	0.032433
0.5820	1.678380	0.032563
0.5840	1.677894	0.032688
0.5860	1.677456	0.032805
0.5880	1.677063	0.032910
0.5900	1.676715	0.033000
0.5920	1.676409	0.033069
0.5940	1.676144	0.033116
0.5960	1.675917	0.033136
0.5980	1.675725	0.033127
0.6000	1.675566	0.033086
0.6020	1.675435	0.033010
0.6040	1.675329	0.032899
0.6060	1.675245	0.032749
0.6080	1.675179	0.032561
0.6100	1.675127	0.032333
0.6120	1.675085	0.032065
0.6140	1.675050	0.031756
0.6160	1.675017	0.031408
0.6180	1.674983	0.031020
0.6200	1.674945	0.030593
0.6220	1.674899	0.030130
0.6240	1.674842	0.029631
0.6260	1.674771	0.029098
0.6280	1.674683	0.028533
0.6300	1.674577	0.027938
0.6320	1.674449	0.027316
0.6340	1.674299	0.026670
0.6360	1.674123	0.026001
0.6380	1.673922	0.025312
0.6400	1.673693	0.024606
0.6420	1.673436	0.023886
0.6440	1.673150	0.023155
0.6460	1.672835	0.022414
0.6480	1.672491	0.021667
0.6500	1.672117	0.020916
0.6520	1.671715	0.020164
0.6540	1.671284	0.019412
0.6560	1.670825	0.018664
0.6580	1.670340	0.017921
0.6600	1.669828	0.017185
0.6620	1.669291	0.016458
0.6640	1.668730	0.015742
0.6660	1.668146	0.015037
0.6680	1.667540	0.014347
0.6700	1.666915	0.013671
0.6720	1.666271	0.013011
0.6740	1.665609	0.012368
0.6760	1.664931	0.011742
0.6780	1.664239	0.011135
0.6800	1.663534	0.010546
0.6820	1.662817	0.009977
0.6840	1.662090	0.009428
0.6860	1.661354	0.008898
0.6880	1.660611	0.008388
0.6900	1.659861	0.007899
0.6920	1.659105	0.007429
0.6940	1.658346	0.006979
0.6960	1.657584	0.006548
0.6980	1.656820	0.006137
0.7000	1.656056	0.005745
0.7020	1.655291	0.005371
0.7040	1.654528	0.005016
0.7060	1.653766	0.004678
0.7080	1.653007	0.004358
0.7100	1.652251	0.004054
0.7120	1.651499	0.003767
0.7140	1.650751	0.003495
0.7160	1.650009	0.003239
0.7180	1.649272	0.002998
0.7200	1.648541	0.002770
0.7220	1.647816	0.002556
0.7240	1.647098	0.002356
0.7260	1.646387	0.002168
0.7280	1.645683	0.001992
0.7300	1.644987	0.001827
0.7320	1.644298	0.001673
0.7340	1.643617	0.001530
0.7360	1.642944	0.001397
0.7380	1.642280	0.001274
0.7400	1.641623	0.001160
0.7420	1.640975	0.001054
0.7440	1.640335	0.000957
0.7460	1.639704	0.000868
0.7480	1.639081	0.000787
0.7500	1.638467	0.000713
0.7520	1.637862	0.000645
0.7540	1.637265	0.000585
0.7560	1.636677	0.000530
0.7580	1.636098	0.000482
0.7600	1.635528	0.000439
0.7620	1.634968	0.000402
0.7640	1.634418	0.000369
0.7660	1.633878	0.000338
0.7680	1.633346	0.000310
0.7700	1.632823	0.000284
0.7720	1.632307	0.000261
0.7740	1.631799	0.000239
0.7760	1.631298	0.000219
0.7780	1.630805	0.000201
0.7800	1.630318	0.000184
0.7820	1.629838	0.000168
0.7840	1.629364	0.000154
0.7860	1.628897	0.000141
0.7880	1.628435	0.000130
0.7900	1.627980	0.000119
0.7920	1.627530	0.000109
0.7940	1.627086	0.000100
0.7960	1.626647	0.000091
0.7980	1.626214	0.000084
0.8000	1.625786	0.000077
0.8020	1.625363	0.000070
0.8040	1.624945	0.000064
0.8060	1.624531	0.000059
0.8080	1.624122	0.000054
0.8100	1.623718	0.000050
0.8120	1.623318	0.000046
0.8140	1.622923	0.000042
0.8160	1.622532	0.000038
0.8180	1.622144	0.000035
0.8200	1.621761	0.000032
0.8220	1.621382	0.000030
0.8240	1.621007	0.000027
0.8260	1.620635	0.000025
0.8280	1.620267	0.000023
0.8300	1.619903	0.000021
0.8320	1.619542	0.000020
0.8340	1.619185	0.000018
0.8360	1.618831	0.000017
0.8380	1.618480	0.000015
0.8400	1.618132	0.000014
0.8420	1.617788	0.000013
0.8440	1.617447	0.000012
0.8460	1.617109	0.000011
0.8480	1.616773	0.000010
0.8500	1.616441	0.000010
0.8520	1.616112	0.000009
0.8540	1.615785	0.000008
0.8560	1.615461	0.000008
0.8580	1.615140	0.000007
0.8600	1.614821	0.000007
0.8620	1.614505	0.000006
0.8640	1.614192	0.000006
0.8660	1.613881	0.000005
0.8680	1.613572	0.000005
0.8700	1.613266	0.000005
0.8720	1.612962	0.000004
0.8740	1.612661	0.000004
0.8760	1.612362	0.000004
0.8780	1.612065	0.000004
0.8800	1.611771	0.000003
0.8820	1.611478	0.000003
0.8840	1.611188	0.000003
0.8860	1.610900	0.000003
0.8880	1.610614	0.000003
0.8900	1.610330	0.000002
0.8920	1.610048	0.000002
0.8940	1.609768	0.000002
0.8960	1.609490	0.000002
0.8980	1.609214	0.000002
0.9000	1.608940	0.000002
0.9020	1.608667	0.000002
0.9040	1.608397	0.000002
0.9060	1.608128	0.000001
0.9080	1.607861	0.000001
0.9100	1.607596	0.000001
0.9120	1.607333	0.000001
0.9140	1.607071	0.000001
0.9160	1.606811	0.000001
0.9180	1.606553	0.000001
0.9200	1.606296	0.000001
0.9220	1.606041	0.000001
0.9240	1.605787	0.000001
0.9260	1.605536	0.000001
0.9280	1.605285	0.000001
0.9300	1.605036	0.000001
0.9320	1.604789	0.000001
0.9340	1.604543	0.000001
0.9360	1.604299	0.000001
0.9380	1.604056	0.000001
0.9400	1.603814	0.000001
0.9420	1.603574	0.000001
0.9440	1.603335	0.000000
0.9460	1.603098	0.000000
0.9480	1.602862	0.000000
0.9500	1.602627	0.000000
0.9520	1.602394	0.000000
0.9540	1.602162	0.000000
0.9560	1.601931	0.000000
0.9580	1.601702	0.000000
0.9600	1.601474	0.000000
0.9620	1.601247	0.000000
0.9640	1.601021	0.000000
0.9660	1.600796	0.000000
0.9680	1.600573	0.000000
0.9700	1.600351	0.000000
0.9720	1.600130	0.000000
0.9740	1.599910	0.000000
0.9760	1.599691	0.000000
0.9780	1.599474	0.000000
0.9800	1.599257	0.000000
0.9820	1.599042	0.000000
0.9840	1.598827	0.000000
0.9860	1.598614	0.000000
0.9880	1.598402	0.000000
0.9900	1.598191	0.000000
0.9920	1.597981	0.000000
0.9940	1.597772	0.000000
0.9960	1.597564	0.000000
0.9980	1.597356	0.000000
1.0000	1.597150	0.000000
1.0050	1.596639	0.000000
1.0100	1.596134	0.000000
1.0150	1.595635	0.000000
1.0200	1.595141	0.000000
1.0250	1.594653	0.000000
1.0300	1.594169	0.000000
1.0350	1.593691	0.000000
1.0400	1.593218	0.000000
1.0450	1.592750	0.000000
1.0500	1.592287	0.000000
1.0550	1.591828	0.000000
1.0600	1.591374	0.000000
1.0650	1.590924	0.000000
1.0700	1.590478	0.000000
1.0750	1.590036	0.000000
1.0800	1.589598	0.000000
1.0850	1.589165	0.000000
1.0900	1.588735	0.000000
1.0950	1.588308	0.000000
1.1000	1.587886	0.000000
1.1050	1.587467	0.000000
1.1100	1.587051	0.000000
1.1150	1.586639	0.000000
1.1200	1.586229	0.000000
1.1250	1.585823	0.000000
1.1300	1.585421	0.000000
1.1350	1.585021	0.000000
1.1400	1.584624	0.000000
1.1450	1.584230	0.000000
1.1500	1.583838	0.000000
1.1550	1.583450	0.000000
1.1600	1.583064	0.000000
1.1650	1.582680	0.000000
1.1700	1.582299	0.000001
1.1750	1.581921	0.000001
1.1800	1.581545	0.000001
1.1850	1.581171	0.000001
1.1900	1.580800	0.000001
1.1950	1.580431	0.000001
1.2000	1.580063	0.000001
