Material: main / C / Taylor
Optical constants. A. Taylor, P. Ashcheulov, P. Hubík, Z. Weiss, L. Klimša, J. Kopeček, J. Hrabovsky, M. Veis, J. Lorinčík, I. Elantyev, V. Mortet. Comparative determination of atomic boron and carrier concentration in highly boron doped nano-crystalline diamond, Diam. Relat. Mater., 109837 (2023)
Comments: Single-crystal CVD
Specs: {"n_is_absolute": true, "wavelength_is_vacuum": true, "substrate": "glass"}
wavelength (um)	n	k
1.929754E-01	2.988792E+00	4.916800E-02
1.959750E-01	2.957010E+00	3.808900E-02
1.989746E-01	2.927072E+00	2.878400E-02
2.019743E-01	2.898881E+00	2.106200E-02
2.049739E-01	2.872354E+00	1.476100E-02
2.079735E-01	2.847417E+00	9.738000E-03
2.109731E-01	2.824011E+00	5.872000E-03
2.139727E-01	2.802094E+00	3.056000E-03
2.169723E-01	2.781645E+00	1.196000E-03
2.199719E-01	2.762682E+00	2.100000E-04
2.229716E-01	2.745359E+00	0.000000E+00
2.259712E-01	2.729745E+00	0.000000E+00
2.289708E-01	2.715392E+00	0.000000E+00
2.319704E-01	2.702086E+00	0.000000E+00
2.349700E-01	2.689687E+00	0.000000E+00
2.379697E-01	2.678087E+00	0.000000E+00
2.409693E-01	2.667202E+00	0.000000E+00
2.439689E-01	2.656961E+00	0.000000E+00
2.469685E-01	2.647304E+00	0.000000E+00
2.499681E-01	2.638181E+00	0.000000E+00
2.529677E-01	2.629546E+00	0.000000E+00
2.559674E-01	2.621361E+00	0.000000E+00
2.589670E-01	2.613589E+00	0.000000E+00
2.619666E-01	2.606201E+00	0.000000E+00
2.649662E-01	2.599169E+00	0.000000E+00
2.679658E-01	2.592467E+00	0.000000E+00
2.709654E-01	2.586073E+00	0.000000E+00
2.739650E-01	2.579967E+00	0.000000E+00
2.769647E-01	2.574130E+00	0.000000E+00
2.799643E-01	2.568544E+00	0.000000E+00
2.829639E-01	2.563195E+00	0.000000E+00
2.859636E-01	2.558069E+00	0.000000E+00
2.889631E-01	2.553151E+00	0.000000E+00
2.919628E-01	2.548430E+00	0.000000E+00
2.949624E-01	2.543895E+00	0.000000E+00
2.979620E-01	2.539536E+00	0.000000E+00
3.009617E-01	2.535342E+00	0.000000E+00
3.039612E-01	2.531306E+00	0.000000E+00
3.069609E-01	2.527419E+00	0.000000E+00
3.099605E-01	2.523672E+00	0.000000E+00
3.129601E-01	2.520060E+00	0.000000E+00
3.159597E-01	2.516574E+00	0.000000E+00
3.189594E-01	2.513210E+00	0.000000E+00
3.219589E-01	2.509961E+00	0.000000E+00
3.249585E-01	2.506822E+00	0.000000E+00
3.279582E-01	2.503787E+00	0.000000E+00
3.309579E-01	2.500852E+00	0.000000E+00
3.339574E-01	2.498012E+00	0.000000E+00
3.369571E-01	2.495263E+00	0.000000E+00
3.399567E-01	2.492601E+00	0.000000E+00
3.429563E-01	2.490022E+00	0.000000E+00
3.459559E-01	2.487522E+00	0.000000E+00
3.489555E-01	2.485099E+00	0.000000E+00
3.519552E-01	2.482748E+00	0.000000E+00
3.549547E-01	2.480468E+00	0.000000E+00
3.579544E-01	2.478254E+00	0.000000E+00
3.609540E-01	2.476105E+00	0.000000E+00
3.639537E-01	2.474018E+00	0.000000E+00
3.669532E-01	2.471990E+00	0.000000E+00
3.699529E-01	2.470019E+00	0.000000E+00
3.729524E-01	2.468102E+00	0.000000E+00
3.759521E-01	2.466239E+00	0.000000E+00
3.789517E-01	2.464426E+00	0.000000E+00
3.819514E-01	2.462662E+00	0.000000E+00
3.849510E-01	2.460945E+00	0.000000E+00
3.879506E-01	2.459274E+00	0.000000E+00
3.909502E-01	2.457646E+00	0.000000E+00
3.939498E-01	2.456061E+00	0.000000E+00
3.969494E-01	2.454515E+00	0.000000E+00
3.999490E-01	2.453010E+00	0.000000E+00
4.029487E-01	2.451542E+00	0.000000E+00
4.059483E-01	2.450111E+00	0.000000E+00
4.089479E-01	2.448714E+00	0.000000E+00
4.119475E-01	2.447353E+00	0.000000E+00
4.149471E-01	2.446024E+00	0.000000E+00
4.179468E-01	2.444727E+00	0.000000E+00
4.209464E-01	2.443461E+00	0.000000E+00
4.239460E-01	2.442225E+00	0.000000E+00
4.269456E-01	2.441018E+00	0.000000E+00
4.299452E-01	2.439838E+00	0.000000E+00
4.329449E-01	2.438686E+00	0.000000E+00
4.359444E-01	2.437560E+00	0.000000E+00
4.389441E-01	2.436460E+00	0.000000E+00
4.419436E-01	2.435384E+00	0.000000E+00
4.449433E-01	2.434332E+00	0.000000E+00
4.479429E-01	2.433304E+00	0.000000E+00
4.509425E-01	2.432298E+00	0.000000E+00
4.539422E-01	2.431314E+00	0.000000E+00
4.569417E-01	2.430351E+00	0.000000E+00
4.599414E-01	2.429408E+00	0.000000E+00
4.629410E-01	2.428486E+00	0.000000E+00
4.659406E-01	2.427583E+00	0.000000E+00
4.689403E-01	2.426698E+00	0.000000E+00
4.719398E-01	2.425833E+00	0.000000E+00
4.749395E-01	2.424984E+00	0.000000E+00
4.779391E-01	2.424154E+00	0.000000E+00
4.809386E-01	2.423340E+00	0.000000E+00
4.839382E-01	2.422542E+00	0.000000E+00
4.869380E-01	2.421761E+00	0.000000E+00
4.899376E-01	2.420995E+00	0.000000E+00
4.929372E-01	2.420244E+00	0.000000E+00
4.959368E-01	2.419507E+00	0.000000E+00
4.989364E-01	2.418785E+00	0.000000E+00
5.019361E-01	2.418077E+00	0.000000E+00
5.049355E-01	2.417383E+00	0.000000E+00
5.079352E-01	2.416701E+00	0.000000E+00
5.109348E-01	2.416033E+00	0.000000E+00
5.139346E-01	2.415377E+00	0.000000E+00
5.169340E-01	2.414733E+00	0.000000E+00
5.199338E-01	2.414102E+00	0.000000E+00
5.229333E-01	2.413481E+00	0.000000E+00
5.259331E-01	2.412873E+00	0.000000E+00
5.289327E-01	2.412275E+00	0.000000E+00
5.319322E-01	2.411688E+00	0.000000E+00
5.349318E-01	2.411111E+00	0.000000E+00
5.379314E-01	2.410545E+00	0.000000E+00
5.409310E-01	2.409989E+00	0.000000E+00
5.439306E-01	2.409443E+00	0.000000E+00
5.469304E-01	2.408906E+00	0.000000E+00
5.499300E-01	2.408378E+00	0.000000E+00
5.529294E-01	2.407860E+00	0.000000E+00
5.559291E-01	2.407351E+00	0.000000E+00
5.589287E-01	2.406850E+00	0.000000E+00
5.619283E-01	2.406357E+00	0.000000E+00
5.649281E-01	2.405873E+00	0.000000E+00
5.679275E-01	2.405397E+00	0.000000E+00
5.709272E-01	2.404929E+00	0.000000E+00
5.739268E-01	2.404469E+00	0.000000E+00
5.769264E-01	2.404016E+00	0.000000E+00
5.799261E-01	2.403571E+00	0.000000E+00
5.829256E-01	2.403133E+00	0.000000E+00
5.859253E-01	2.402702E+00	0.000000E+00
5.889250E-01	2.402278E+00	0.000000E+00
5.919247E-01	2.401861E+00	0.000000E+00
5.949241E-01	2.401450E+00	0.000000E+00
5.979237E-01	2.401047E+00	0.000000E+00
6.009234E-01	2.400649E+00	0.000000E+00
6.039231E-01	2.400257E+00	0.000000E+00
6.069225E-01	2.399872E+00	0.000000E+00
6.099222E-01	2.399492E+00	0.000000E+00
6.129217E-01	2.399119E+00	0.000000E+00
6.159215E-01	2.398751E+00	0.000000E+00
6.189211E-01	2.398389E+00	0.000000E+00
6.219208E-01	2.398032E+00	0.000000E+00
6.249203E-01	2.397681E+00	0.000000E+00
6.279201E-01	2.397334E+00	0.000000E+00
6.309195E-01	2.396993E+00	0.000000E+00
6.339192E-01	2.396657E+00	0.000000E+00
6.369188E-01	2.396326E+00	0.000000E+00
6.399184E-01	2.396000E+00	0.000000E+00
6.429182E-01	2.395679E+00	0.000000E+00
6.459176E-01	2.395362E+00	0.000000E+00
6.489172E-01	2.395050E+00	0.000000E+00
6.519171E-01	2.394742E+00	0.000000E+00
6.549164E-01	2.394439E+00	0.000000E+00
6.579163E-01	2.394140E+00	0.000000E+00
6.609156E-01	2.393846E+00	0.000000E+00
6.639153E-01	2.393555E+00	0.000000E+00
6.669152E-01	2.393269E+00	0.000000E+00
6.699147E-01	2.392987E+00	0.000000E+00
6.729143E-01	2.392708E+00	0.000000E+00
6.759140E-01	2.392433E+00	0.000000E+00
6.789135E-01	2.392163E+00	0.000000E+00
6.819130E-01	2.391896E+00	0.000000E+00
6.849127E-01	2.391632E+00	0.000000E+00
6.879122E-01	2.391372E+00	0.000000E+00
6.909118E-01	2.391116E+00	0.000000E+00
6.939114E-01	2.390863E+00	0.000000E+00
6.969112E-01	2.390613E+00	0.000000E+00
6.999106E-01	2.390367E+00	0.000000E+00
7.029105E-01	2.390124E+00	0.000000E+00
7.059100E-01	2.389884E+00	0.000000E+00
7.089097E-01	2.389647E+00	0.000000E+00
7.119093E-01	2.389414E+00	0.000000E+00
7.149088E-01	2.389184E+00	0.000000E+00
7.179083E-01	2.388956E+00	0.000000E+00
7.209079E-01	2.388731E+00	0.000000E+00
7.239078E-01	2.388510E+00	0.000000E+00
7.269072E-01	2.388291E+00	0.000000E+00
7.299070E-01	2.388075E+00	0.000000E+00
7.329066E-01	2.387861E+00	0.000000E+00
7.359060E-01	2.387651E+00	0.000000E+00
7.389059E-01	2.387443E+00	0.000000E+00
7.419055E-01	2.387238E+00	0.000000E+00
7.449048E-01	2.387035E+00	0.000000E+00
7.479047E-01	2.386834E+00	0.000000E+00
7.509042E-01	2.386636E+00	0.000000E+00
7.539041E-01	2.386441E+00	0.000000E+00
7.569035E-01	2.386248E+00	0.000000E+00
7.599031E-01	2.386058E+00	0.000000E+00
7.629027E-01	2.385869E+00	0.000000E+00
7.659024E-01	2.385683E+00	0.000000E+00
7.689019E-01	2.385499E+00	0.000000E+00
7.719014E-01	2.385318E+00	0.000000E+00
7.749012E-01	2.385139E+00	0.000000E+00
7.779010E-01	2.384961E+00	0.000000E+00
7.809005E-01	2.384786E+00	0.000000E+00
7.838999E-01	2.384613E+00	0.000000E+00
7.868995E-01	2.384442E+00	0.000000E+00
7.898994E-01	2.384273E+00	0.000000E+00
7.928991E-01	2.384106E+00	0.000000E+00
7.958985E-01	2.383940E+00	0.000000E+00
7.988981E-01	2.383777E+00	0.000000E+00
8.018976E-01	2.383616E+00	0.000000E+00
8.048972E-01	2.383456E+00	0.000000E+00
8.078973E-01	2.383299E+00	0.000000E+00
8.108964E-01	2.383143E+00	0.000000E+00
8.138960E-01	2.382988E+00	0.000000E+00
8.168958E-01	2.382836E+00	0.000000E+00
8.198956E-01	2.382685E+00	0.000000E+00
8.228950E-01	2.382536E+00	0.000000E+00
8.258945E-01	2.382389E+00	0.000000E+00
8.288944E-01	2.382243E+00	0.000000E+00
8.318938E-01	2.382099E+00	0.000000E+00
8.348936E-01	2.381957E+00	0.000000E+00
8.378930E-01	2.381816E+00	0.000000E+00
8.408929E-01	2.381677E+00	0.000000E+00
8.438926E-01	2.381539E+00	0.000000E+00
8.468918E-01	2.381402E+00	0.000000E+00
8.498914E-01	2.381268E+00	0.000000E+00
8.528912E-01	2.381134E+00	0.000000E+00
8.558910E-01	2.381002E+00	0.000000E+00
8.588905E-01	2.380872E+00	0.000000E+00
8.618902E-01	2.380743E+00	0.000000E+00
8.648898E-01	2.380615E+00	0.000000E+00
8.678896E-01	2.380488E+00	0.000000E+00
8.708890E-01	2.380363E+00	0.000000E+00
8.738888E-01	2.380239E+00	0.000000E+00
8.768883E-01	2.380117E+00	0.000000E+00
8.798878E-01	2.379996E+00	0.000000E+00
8.828872E-01	2.379876E+00	0.000000E+00
8.858868E-01	2.379757E+00	0.000000E+00
8.888865E-01	2.379640E+00	0.000000E+00
8.918860E-01	2.379524E+00	0.000000E+00
8.948859E-01	2.379408E+00	0.000000E+00
8.978858E-01	2.379295E+00	0.000000E+00
9.008849E-01	2.379182E+00	0.000000E+00
9.038851E-01	2.379070E+00	0.000000E+00
9.068847E-01	2.378960E+00	0.000000E+00
9.098843E-01	2.378850E+00	0.000000E+00
9.128836E-01	2.378742E+00	0.000000E+00
9.158831E-01	2.378635E+00	0.000000E+00
9.188827E-01	2.378529E+00	0.000000E+00
9.218828E-01	2.378424E+00	0.000000E+00
9.248818E-01	2.378320E+00	0.000000E+00
9.278817E-01	2.378217E+00	0.000000E+00
9.308815E-01	2.378115E+00	0.000000E+00
9.338811E-01	2.378014E+00	0.000000E+00
9.368809E-01	2.377914E+00	0.000000E+00
9.398802E-01	2.377815E+00	0.000000E+00
9.428800E-01	2.377717E+00	0.000000E+00
9.458796E-01	2.377620E+00	0.000000E+00
9.488787E-01	2.377524E+00	0.000000E+00
9.518787E-01	2.377429E+00	0.000000E+00
9.548785E-01	2.377335E+00	0.000000E+00
9.578781E-01	2.377241E+00	0.000000E+00
9.608772E-01	2.377149E+00	0.000000E+00
9.638772E-01	2.377057E+00	0.000000E+00
9.668771E-01	2.376966E+00	0.000000E+00
9.698768E-01	2.376877E+00	0.000000E+00
9.728760E-01	2.376788E+00	0.000000E+00
9.758755E-01	2.376699E+00	0.000000E+00
9.788749E-01	2.376612E+00	0.000000E+00
9.818750E-01	2.376525E+00	0.000000E+00
9.848747E-01	2.376440E+00	0.000000E+00
9.878739E-01	2.376355E+00	0.000000E+00
9.908740E-01	2.376271E+00	0.000000E+00
9.938733E-01	2.376187E+00	0.000000E+00
9.968731E-01	2.376105E+00	0.000000E+00
9.998726E-01	2.376023E+00	0.000000E+00
1.007372E+00	2.375821E+00	0.000000E+00
1.014871E+00	2.375624E+00	0.000000E+00
1.022370E+00	2.375432E+00	0.000000E+00
1.029868E+00	2.375243E+00	0.000000E+00
1.037368E+00	2.375059E+00	0.000000E+00
1.044867E+00	2.374879E+00	0.000000E+00
1.052366E+00	2.374703E+00	0.000000E+00
1.059865E+00	2.374531E+00	0.000000E+00
1.067364E+00	2.374362E+00	0.000000E+00
1.074863E+00	2.374197E+00	0.000000E+00
1.082363E+00	2.374035E+00	0.000000E+00
1.089861E+00	2.373877E+00	0.000000E+00
1.097361E+00	2.373722E+00	0.000000E+00
1.104859E+00	2.373570E+00	0.000000E+00
1.112358E+00	2.373421E+00	0.000000E+00
1.119857E+00	2.373276E+00	0.000000E+00
1.127357E+00	2.373133E+00	0.000000E+00
1.134855E+00	2.372993E+00	0.000000E+00
1.142355E+00	2.372856E+00	0.000000E+00
1.149853E+00	2.372721E+00	0.000000E+00
1.157353E+00	2.372590E+00	0.000000E+00
1.164851E+00	2.372460E+00	0.000000E+00
1.172351E+00	2.372334E+00	0.000000E+00
1.179850E+00	2.372209E+00	0.000000E+00
1.187348E+00	2.372087E+00	0.000000E+00
1.194848E+00	2.371968E+00	0.000000E+00
1.202347E+00	2.371851E+00	0.000000E+00
1.209846E+00	2.371736E+00	0.000000E+00
1.217344E+00	2.371623E+00	0.000000E+00
1.224844E+00	2.371512E+00	0.000000E+00
1.232343E+00	2.371403E+00	0.000000E+00
1.239842E+00	2.371296E+00	0.000000E+00
1.247341E+00	2.371191E+00	0.000000E+00
1.254840E+00	2.371088E+00	0.000000E+00
1.262339E+00	2.370987E+00	0.000000E+00
1.269838E+00	2.370888E+00	0.000000E+00
1.277337E+00	2.370790E+00	0.000000E+00
1.284836E+00	2.370694E+00	0.000000E+00
1.292335E+00	2.370600E+00	0.000000E+00
1.299835E+00	2.370508E+00	0.000000E+00
1.307333E+00	2.370417E+00	0.000000E+00
1.314832E+00	2.370327E+00	0.000000E+00
1.322332E+00	2.370239E+00	0.000000E+00
1.329830E+00	2.370153E+00	0.000000E+00
1.337329E+00	2.370068E+00	0.000000E+00
1.344829E+00	2.369985E+00	0.000000E+00
1.352327E+00	2.369903E+00	0.000000E+00
1.359826E+00	2.369822E+00	0.000000E+00
1.367326E+00	2.369743E+00	0.000000E+00
1.374825E+00	2.369665E+00	0.000000E+00
1.382324E+00	2.369588E+00	0.000000E+00
1.389823E+00	2.369513E+00	0.000000E+00
1.397322E+00	2.369438E+00	0.000000E+00
1.404821E+00	2.369365E+00	0.000000E+00
1.412320E+00	2.369293E+00	0.000000E+00
1.419820E+00	2.369223E+00	0.000000E+00
1.427317E+00	2.369153E+00	0.000000E+00
1.434818E+00	2.369085E+00	0.000000E+00
1.442316E+00	2.369017E+00	0.000000E+00
1.449816E+00	2.368951E+00	0.000000E+00
1.457314E+00	2.368885E+00	0.000000E+00
1.464814E+00	2.368821E+00	0.000000E+00
1.472313E+00	2.368757E+00	0.000000E+00
1.479811E+00	2.368695E+00	0.000000E+00
1.487311E+00	2.368634E+00	0.000000E+00
1.494810E+00	2.368573E+00	0.000000E+00
1.502309E+00	2.368514E+00	0.000000E+00
1.509808E+00	2.368455E+00	0.000000E+00
1.517307E+00	2.368397E+00	0.000000E+00
1.524805E+00	2.368340E+00	0.000000E+00
1.532305E+00	2.368284E+00	0.000000E+00
1.539803E+00	2.368229E+00	0.000000E+00
1.547304E+00	2.368174E+00	0.000000E+00
1.554801E+00	2.368120E+00	0.000000E+00
1.562301E+00	2.368068E+00	0.000000E+00
1.569800E+00	2.368015E+00	0.000000E+00
1.577299E+00	2.367964E+00	0.000000E+00
1.584799E+00	2.367913E+00	0.000000E+00
1.592297E+00	2.367863E+00	0.000000E+00
1.599796E+00	2.367814E+00	0.000000E+00
1.607295E+00	2.367765E+00	0.000000E+00
1.614794E+00	2.367717E+00	0.000000E+00
1.622293E+00	2.367670E+00	0.000000E+00
1.629793E+00	2.367624E+00	0.000000E+00
1.637291E+00	2.367578E+00	0.000000E+00
1.644791E+00	2.367532E+00	0.000000E+00
1.652290E+00	2.367488E+00	0.000000E+00
1.659788E+00	2.367444E+00	0.000000E+00
1.667288E+00	2.367400E+00	0.000000E+00
1.674785E+00	2.367357E+00	0.000000E+00
1.682287E+00	2.367315E+00	0.000000E+00
1.689784E+00	2.367273E+00	0.000000E+00
