Material: main / C / Tikuisis
Optical constants. K. K. Tikuišis, A. Dubroka, K. Uhlířová, F. Speck, T. Seyller, M. Losurdo, M. Orlita, M. Veis. Dielectric function of epitaxial quasi-freestanding monolayer graphene on Si-face 6H-SiC in a broad spectral range, Phys. Rev. Mater. 7, 044201 (2023)
Comments: Epitaxial monolayer graphene grown on the Si face of 6H-SiC (0001). Room temperature.
Specs: {"n_is_absolute": true, "wavelength_is_vacuum": true, "substrate": "SiC", "film_thickness": "1L"}
wavelength (um)	n	k
0.2260	0.85892	2.19047
0.2290	0.87837	2.29993
0.2320	0.91231	2.42162
0.2350	0.96608	2.55270
0.2380	1.04411	2.68823
0.2410	1.14903	2.82168
0.2440	1.28129	2.94571
0.2470	1.43898	3.05310
0.2500	1.61813	3.13747
0.2530	1.81314	3.19385
0.2560	2.01736	3.21904
0.2590	2.22368	3.21173
0.2620	2.42509	3.17247
0.2650	2.61515	3.10347
0.2680	2.78837	3.00831
0.2710	2.94044	2.89154
0.2740	3.06838	2.75835
0.2770	3.17057	2.61416
0.2800	3.24662	2.46431
0.2830	3.29726	2.31378
0.2860	3.32417	2.16700
0.2890	3.32972	2.02769
0.2920	3.31680	1.89880
0.2950	3.28859	1.78247
0.2980	3.24838	1.68008
0.3010	3.19939	1.59226
0.3040	3.14467	1.51903
0.3070	3.08697	1.45986
0.3100	3.02866	1.41376
0.3130	2.97170	1.37946
0.3160	2.91761	1.35547
0.3190	2.86749	1.34022
0.3220	2.82203	1.33214
0.3250	2.78157	1.32973
0.3280	2.74617	1.33166
0.3310	2.71568	1.33675
0.3340	2.68979	1.34404
0.3370	2.66809	1.35273
0.3400	2.65013	1.36221
0.3430	2.63547	1.37201
0.3460	2.62366	1.38181
0.3490	2.61429	1.39137
0.3520	2.60699	1.40054
0.3550	2.60145	1.40922
0.3580	2.59737	1.41737
0.3610	2.59452	1.42497
0.3640	2.59269	1.43203
0.3670	2.59171	1.43856
0.3700	2.59143	1.44460
0.3730	2.59173	1.45018
0.3760	2.59252	1.45533
0.3790	2.59370	1.46009
0.3820	2.59520	1.46449
0.3850	2.59697	1.46857
0.3880	2.59896	1.47236
0.3910	2.60111	1.47589
0.3940	2.60341	1.47919
0.3970	2.60581	1.48228
0.4000	2.60830	1.48518
0.4030	2.61085	1.48792
0.4060	2.61345	1.49052
0.4090	2.61607	1.49299
0.4120	2.61872	1.49535
0.4150	2.62137	1.49761
0.4180	2.62402	1.49979
0.4210	2.62666	1.50190
0.4240	2.62928	1.50395
0.4270	2.63189	1.50596
0.4300	2.63447	1.50792
0.4330	2.63702	1.50985
0.4360	2.63955	1.51176
0.4390	2.64204	1.51366
0.4420	2.64450	1.51554
0.4450	2.64692	1.51742
0.4480	2.64931	1.51931
0.4510	2.65166	1.52119
0.4540	2.65398	1.52309
0.4570	2.65626	1.52501
0.4600	2.65851	1.52694
0.4630	2.66072	1.52889
0.4660	2.66290	1.53087
0.4690	2.66504	1.53288
0.4720	2.66715	1.53491
0.4750	2.66923	1.53697
0.4780	2.67128	1.53907
0.4810	2.67330	1.54120
0.4840	2.67530	1.54337
0.4870	2.67726	1.54558
0.4900	2.67920	1.54782
0.4930	2.68112	1.55010
0.4960	2.68301	1.55242
0.4990	2.68488	1.55478
0.5020	2.68673	1.55719
0.5050	2.68856	1.55963
0.5080	2.69037	1.56212
0.5110	2.69216	1.56464
0.5140	2.69394	1.56721
0.5170	2.69570	1.56982
0.5200	2.69745	1.57247
0.5230	2.69919	1.57517
0.5260	2.70091	1.57790
0.5290	2.70262	1.58068
0.5320	2.70433	1.58350
0.5350	2.70602	1.58636
0.5380	2.70771	1.58926
0.5410	2.70939	1.59220
0.5440	2.71106	1.59517
0.5470	2.71273	1.59819
0.5500	2.71439	1.60125
0.5530	2.71605	1.60434
0.5560	2.71771	1.60747
0.5590	2.71936	1.61064
0.5620	2.72102	1.61384
0.5650	2.72267	1.61708
0.5680	2.72432	1.62036
0.5710	2.72598	1.62367
0.5740	2.72763	1.62701
0.5770	2.72929	1.63039
0.5800	2.73095	1.63380
0.5830	2.73261	1.63724
0.5860	2.73427	1.64071
0.5890	2.73594	1.64422
0.5920	2.73761	1.64775
0.5950	2.73929	1.65131
0.5980	2.74097	1.65491
0.6010	2.74266	1.65853
0.6040	2.74435	1.66217
0.6070	2.74605	1.66585
0.6100	2.74776	1.66955
0.6130	2.74947	1.67328
0.6160	2.75119	1.67703
0.6190	2.75291	1.68081
0.6220	2.75465	1.68461
0.6250	2.75639	1.68843
0.6280	2.75814	1.69228
0.6310	2.75990	1.69615
0.6340	2.76166	1.70004
0.6370	2.76344	1.70395
0.6400	2.76522	1.70788
0.6430	2.76701	1.71183
0.6460	2.76881	1.71580
0.6490	2.77063	1.71979
0.6520	2.77245	1.72380
0.6550	2.77427	1.72783
0.6580	2.77611	1.73187
0.6610	2.77796	1.73593
0.6640	2.77982	1.74001
0.6670	2.78169	1.74410
0.6700	2.78357	1.74820
0.6730	2.78545	1.75233
0.6760	2.78735	1.75646
0.6790	2.78926	1.76061
0.6820	2.79118	1.76477
0.6850	2.79310	1.76895
0.6880	2.79504	1.77314
0.6910	2.79699	1.77734
0.6940	2.79895	1.78155
0.6970	2.80092	1.78578
0.7000	2.80289	1.79001
0.7030	2.80488	1.79426
0.7060	2.80688	1.79851
0.7090	2.80889	1.80278
0.7120	2.81091	1.80705
0.7150	2.81294	1.81133
0.7180	2.81497	1.81562
0.7210	2.81702	1.81992
0.7240	2.81908	1.82423
0.7270	2.82115	1.82855
0.7300	2.82322	1.83287
0.7330	2.82531	1.83720
0.7360	2.82741	1.84154
0.7390	2.82952	1.84588
0.7420	2.83163	1.85023
0.7450	2.83376	1.85458
0.7480	2.83589	1.85894
0.7510	2.83804	1.86331
0.7540	2.84019	1.86768
0.7570	2.84235	1.87205
0.7600	2.84453	1.87643
0.7630	2.84671	1.88082
0.7660	2.84890	1.88520
0.7690	2.85110	1.88959
0.7720	2.85330	1.89399
0.7750	2.85552	1.89839
0.7780	2.85775	1.90279
0.7810	2.85998	1.90719
0.7840	2.86222	1.91160
0.7870	2.86448	1.91600
0.7900	2.86674	1.92041
0.7930	2.86900	1.92483
0.7960	2.87128	1.92924
0.7990	2.87356	1.93365
0.8020	2.87586	1.93807
0.8050	2.87816	1.94249
0.8080	2.88046	1.94691
0.8110	2.88278	1.95132
0.8140	2.88510	1.95574
0.8170	2.88744	1.96016
0.8200	2.88978	1.96458
0.8230	2.89212	1.96900
0.8260	2.89448	1.97342
0.8290	2.89684	1.97784
0.8320	2.89920	1.98226
0.8350	2.90158	1.98668
0.8380	2.90396	1.99110
0.8410	2.90635	1.99552
0.8440	2.90875	1.99994
0.8470	2.91115	2.00435
0.8500	2.91356	2.00877
0.8530	2.91598	2.01318
0.8560	2.91840	2.01759
0.8590	2.92083	2.02200
0.8620	2.92326	2.02641
0.8650	2.92570	2.03082
0.8680	2.92815	2.03522
0.8710	2.93061	2.03963
0.8740	2.93307	2.04403
0.8770	2.93553	2.04843
0.8800	2.93800	2.05282
0.8830	2.94048	2.05722
0.8860	2.94296	2.06161
0.8890	2.94545	2.06600
0.8920	2.94794	2.07039
0.8950	2.95044	2.07477
0.8980	2.95295	2.07915
0.9010	2.95546	2.08353
0.9040	2.95797	2.08790
0.9070	2.96049	2.09228
0.9100	2.96302	2.09665
0.9130	2.96555	2.10101
0.9160	2.96808	2.10538
0.9190	2.97062	2.10973
0.9220	2.97317	2.11409
0.9250	2.97572	2.11844
0.9280	2.97827	2.12279
0.9310	2.98083	2.12714
0.9340	2.98339	2.13148
0.9370	2.98596	2.13582
0.9400	2.98853	2.14015
0.9430	2.99110	2.14448
0.9460	2.99368	2.14881
0.9490	2.99627	2.15313
0.9520	2.99886	2.15745
0.9550	3.00145	2.16177
0.9580	3.00404	2.16608
0.9610	3.00664	2.17039
0.9640	3.00925	2.17469
0.9670	3.01185	2.17899
0.9700	3.01446	2.18328
0.9730	3.01708	2.18757
0.9760	3.01969	2.19186
0.9790	3.02231	2.19614
0.9820	3.02494	2.20042
0.9850	3.02757	2.20469
0.9880	3.03020	2.20896
0.9910	3.03283	2.21322
0.9940	3.03547	2.21748
0.9970	3.03811	2.22174
1.0000	3.04075	2.22599
1.0075	3.04737	2.23660
1.0150	3.05401	2.24717
1.0225	3.06066	2.25772
1.0300	3.06733	2.26824
1.0375	3.07402	2.27873
1.0450	3.08072	2.28919
1.0525	3.08743	2.29962
1.0600	3.09416	2.31002
1.0675	3.10089	2.32039
1.0750	3.10764	2.33072
1.0825	3.11440	2.34103
1.0900	3.12117	2.35131
1.0975	3.12795	2.36155
1.1050	3.13474	2.37176
1.1125	3.14154	2.38194
1.1200	3.14834	2.39209
1.1275	3.15515	2.40221
1.1350	3.16197	2.41230
1.1425	3.16879	2.42236
1.1500	3.17562	2.43238
1.1575	3.18245	2.44237
1.1650	3.18929	2.45234
1.1725	3.19613	2.46227
1.1800	3.20298	2.47217
1.1875	3.20983	2.48204
1.1950	3.21668	2.49187
1.2025	3.22353	2.50168
1.2100	3.23039	2.51146
1.2175	3.23725	2.52120
1.2250	3.24411	2.53092
1.2325	3.25097	2.54060
1.2400	3.25783	2.55026
1.2475	3.26469	2.55988
1.2550	3.27155	2.56948
1.2625	3.27841	2.57904
1.2700	3.28526	2.58858
1.2775	3.29212	2.59808
1.2850	3.29898	2.60756
1.2925	3.30583	2.61700
1.3000	3.31269	2.62642
1.3075	3.31954	2.63581
1.3150	3.32639	2.64517
1.3225	3.33323	2.65450
1.3300	3.34008	2.66380
1.3375	3.34692	2.67308
1.3450	3.35375	2.68232
1.3525	3.36059	2.69154
1.3600	3.36742	2.70073
1.3675	3.37424	2.70989
1.3750	3.38107	2.71902
1.3825	3.38788	2.72813
1.3900	3.39470	2.73721
1.3975	3.40151	2.74626
1.4050	3.40831	2.75529
1.4125	3.41511	2.76429
1.4200	3.42190	2.77326
1.4275	3.42869	2.78221
1.4350	3.43548	2.79113
1.4400	3.44000	2.79706
1.4475	3.44677	2.80594
1.4550	3.45354	2.81479
1.4600	3.45805	2.82068
1.4675	3.46481	2.82949
1.4750	3.47157	2.83827
1.4800	3.47607	2.84411
1.4875	3.48281	2.85286
1.4950	3.48955	2.86157
1.5000	3.49404	2.86737
1.5075	3.50077	2.87605
1.5150	3.50749	2.88470
1.5200	3.51196	2.89046
1.5275	3.51867	2.89907
1.5350	3.52538	2.90766
1.5400	3.52984	2.91337
1.5475	3.53653	2.92192
1.5550	3.54322	2.93044
1.5600	3.54767	2.93611
1.5675	3.55435	2.94460
1.5750	3.56101	2.95306
1.5800	3.56545	2.95869
1.5875	3.57211	2.96712
1.5950	3.57876	2.97552
1.6000	3.58318	2.98111
1.6075	3.58982	2.98947
1.6150	3.59645	2.99782
1.6200	3.60086	3.00337
1.6275	3.60748	3.01167
1.6350	3.61409	3.01996
1.6400	3.61849	3.02547
1.6475	3.62509	3.03372
1.6550	3.63167	3.04194
1.6600	3.63606	3.04742
1.6675	3.64264	3.05561
1.6750	3.64921	3.06378
1.6800	3.65358	3.06921
1.6875	3.66014	3.07735
1.7197	3.68820	3.11205
1.7799	3.74027	3.17595
1.8399	3.79166	3.23841
1.8999	3.84253	3.29971
1.9595	3.89254	3.35950
2.0198	3.94263	3.41896
2.0798	3.99193	3.47708
2.1399	4.04083	3.53437
2.1998	4.08910	3.59061
2.2592	4.13649	3.64553
2.3199	4.18438	3.70074
2.3795	4.23098	3.75423
2.4400	4.27779	3.80772
2.5000	4.32378	3.86005
2.5592	4.36875	3.91104
2.6200	4.41447	3.96267
2.6795	4.45885	4.01264
2.7390	4.50275	4.06189
2.7996	4.54711	4.11151
2.8599	4.59077	4.16022
2.9194	4.63358	4.20784
2.9798	4.67661	4.25558
3.0392	4.71855	4.30200
3.0992	4.76053	4.34836
3.1596	4.80250	4.39460
3.2184	4.84302	4.43915
3.2795	4.88474	4.48492
3.3386	4.92482	4.52880
3.3999	4.96603	4.57385
3.4589	5.00537	4.61676
3.5200	5.04579	4.66078
3.5783	5.08409	4.70243
3.6385	5.12339	4.74509
3.6982	5.16203	4.78698
3.7599	5.20167	4.82988
3.8181	5.23876	4.86997
3.8780	5.27676	4.91098
3.9399	5.31569	4.95294
3.9976	5.35174	4.99176
4.0571	5.38863	5.03141
4.1183	5.42637	5.07194
4.1780	5.46294	5.11118
4.2395	5.50034	5.15125
4.2993	5.53645	5.18990
4.3571	5.57116	5.22701
