Material: main / Nb2O5 / Horcholle-400
Optical constants. B. Horcholle, C. Labbé, X. Portier, P. Marie, C. Frilay, W. Yuan, W. Jadwisienczak, D. Ingram, C. Grygiel, J. Cardin. Growth and study of Tb3+ doped Nb2O5 thin films by radiofrequency magnetron sputtering: photoluminescence properties. Appl. Surf. Sci. 597, 153711 (2022) (Numerical data kindly provided by Julien Cardin)
Comments: Nb2O5 thin film deposited by reactive magnetron sputtering and annealed by rapid treatment annealing at 400 °C
wavelength (um)	n	k
0.20664	1.87824	1.34262
0.20733	1.88870	1.34680
0.20803	1.89930	1.35091
0.20873	1.91007	1.35496
0.20943	1.92099	1.35894
0.21014	1.93208	1.36284
0.21086	1.94333	1.36666
0.21158	1.95474	1.37041
0.21230	1.96633	1.37406
0.21303	1.97809	1.37763
0.21377	1.99002	1.38110
0.21451	2.00212	1.38448
0.21525	2.01440	1.38774
0.21600	2.02686	1.39090
0.21676	2.03951	1.39395
0.21752	2.05233	1.39687
0.21828	2.06534	1.39967
0.21905	2.07854	1.40234
0.21983	2.09193	1.40487
0.22061	2.10552	1.40725
0.22140	2.11929	1.40949
0.22219	2.13326	1.41156
0.22299	2.14742	1.41347
0.22380	2.16179	1.41521
0.22461	2.17635	1.41677
0.22543	2.19111	1.41814
0.22625	2.20607	1.41931
0.22708	2.22123	1.42028
0.22791	2.23660	1.42103
0.22875	2.25216	1.42156
0.22960	2.26793	1.42185
0.23045	2.28390	1.42190
0.23131	2.30007	1.42170
0.23218	2.31644	1.42123
0.23305	2.33301	1.42048
0.23393	2.34977	1.41945
0.23482	2.36672	1.41812
0.23571	2.38387	1.41647
0.23661	2.40121	1.41451
0.23752	2.41872	1.41220
0.23843	2.43642	1.40955
0.23935	2.45429	1.40654
0.24028	2.47233	1.40314
0.24121	2.49054	1.39936
0.24216	2.50889	1.39518
0.24311	2.52740	1.39057
0.24406	2.54604	1.38553
0.24503	2.56481	1.38005
0.24600	2.58370	1.37410
0.24698	2.60269	1.36767
0.24797	2.62177	1.36075
0.24896	2.64093	1.35332
0.24997	2.66016	1.34537
0.25098	2.67943	1.33688
0.25200	2.69873	1.32784
0.25303	2.71805	1.31824
0.25407	2.73735	1.30806
0.25511	2.75662	1.29729
0.25617	2.77584	1.28591
0.25723	2.79498	1.27392
0.25830	2.81401	1.26131
0.25938	2.83292	1.24806
0.26047	2.85166	1.23417
0.26157	2.87022	1.21962
0.26268	2.88856	1.20443
0.26380	2.90665	1.18857
0.26492	2.92445	1.17205
0.26606	2.94193	1.15487
0.26721	2.95906	1.13702
0.26836	2.97579	1.11852
0.26953	2.99210	1.09937
0.27071	3.00795	1.07958
0.27189	3.02330	1.05916
0.27309	3.03810	1.03812
0.27430	3.05233	1.01648
0.27552	3.06594	0.99425
0.27675	3.07890	0.97147
0.27799	3.09117	0.94815
0.27924	3.10272	0.92433
0.28051	3.11351	0.90002
0.28178	3.12351	0.87528
0.28307	3.13269	0.85012
0.28437	3.14102	0.82459
0.28568	3.14848	0.79874
0.28700	3.15503	0.77260
0.28833	3.16067	0.74622
0.28968	3.16537	0.71965
0.29104	3.16911	0.69293
0.29241	3.17188	0.66611
0.29380	3.17369	0.63925
0.29520	3.17451	0.61240
0.29661	3.17435	0.58561
0.29804	3.17321	0.55893
0.29948	3.17109	0.53241
0.30093	3.16801	0.50611
0.30240	3.16398	0.48008
0.30388	3.15901	0.45437
0.30538	3.15312	0.42902
0.30689	3.14633	0.40409
0.30842	3.13867	0.37962
0.30996	3.13017	0.35565
0.31152	3.12086	0.33223
0.31309	3.11076	0.30940
0.31468	3.09992	0.28719
0.31629	3.08836	0.26565
0.31791	3.07614	0.24480
0.31955	3.06329	0.22467
0.32120	3.04984	0.20529
0.32287	3.03585	0.18670
0.32457	3.02136	0.16891
0.32627	3.00641	0.15194
0.32800	2.99104	0.13581
0.32974	2.97531	0.12054
0.33151	2.95926	0.10615
0.33329	2.94294	0.09265
0.33509	2.92639	0.08004
0.33691	2.90967	0.06834
0.33875	2.89283	0.05755
0.34062	2.87591	0.04769
0.34250	2.85898	0.03875
0.34440	2.84208	0.03073
0.34632	2.82527	0.02365
0.34827	2.80862	0.01750
0.35024	2.79218	0.01228
0.35223	2.77604	0.00799
0.35424	2.76027	0.00462
0.35628	2.74497	0.00217
0.35834	2.73026	6.38E-04
0.36042	2.71636	1.60E-05
0.36253	2.70370	0
0.36466	2.69200	0
0.36682	2.68100	0
0.36900	2.67058	0
0.37121	2.66065	0
0.37345	2.65116	0
0.37571	2.64206	0
0.37800	2.63332	0
0.38032	2.62491	0
0.38267	2.61680	0
0.38504	2.60897	0
0.38745	2.60139	0
0.38989	2.59407	0
0.39235	2.58697	0
0.39485	2.58009	0
0.39738	2.57341	0
0.39995	2.56692	0
0.40255	2.56061	0
0.40518	2.55448	0
0.40784	2.54852	0
0.41054	2.54271	0
0.41328	2.53705	0
0.41605	2.53153	0
0.41886	2.52616	0
0.42171	2.52091	0
0.42460	2.51579	0
0.42753	2.51079	0
0.43050	2.50591	0
0.43351	2.50114	0
0.43656	2.49648	0
0.43966	2.49192	0
0.44280	2.48746	0
0.44599	2.48310	0
0.44922	2.47884	0
0.45250	2.47466	0
0.45582	2.47058	0
0.45920	2.46658	0
0.46263	2.46266	0
0.46611	2.45882	0
0.46964	2.45506	0
0.47322	2.45137	0
0.47686	2.44776	0
0.48056	2.44422	0
0.48431	2.44074	0
0.48813	2.43734	0
0.49200	2.43400	0
0.49594	2.43072	0
0.49994	2.42751	0
0.50400	2.42435	0
0.50813	2.42126	0
0.51233	2.41822	0
0.51660	2.41524	0
0.52094	2.41231	0
0.52536	2.40944	0
0.52985	2.40662	0
0.53441	2.40385	0
0.53906	2.40112	0
0.54379	2.39845	0
0.54860	2.39583	0
0.55350	2.39325	0
0.55849	2.39072	0
0.56356	2.38823	0
0.56873	2.38578	0
0.57400	2.38338	0
0.57936	2.38102	0
0.58483	2.37870	0
0.59040	2.37642	0
0.59608	2.37418	0
0.60186	2.37198	0
0.60776	2.36982	0
0.61378	2.36769	0
0.61992	2.36560	0
0.62618	2.36355	0
0.63257	2.36153	0
0.63909	2.35954	0
0.64575	2.35759	0
0.65255	2.35568	0
0.65949	2.35380	0
0.66658	2.35194	0
0.67383	2.35012	0
0.68123	2.34834	0
0.68880	2.34658	0
0.69654	2.34485	0
0.70445	2.34315	0
0.71255	2.34148	0
0.72084	2.33984	0
0.72932	2.33823	0
0.73800	2.33665	0
0.74689	2.33509	0
0.75600	2.33356	0
0.76533	2.33206	0
0.77490	2.33058	0
0.78471	2.32913	0
0.79477	2.32771	0
0.80509	2.32631	0
0.81568	2.32494	0
0.82656	2.32359	0
