Material: main / Nb2O5 / Horcholle-800
Optical constants. B. Horcholle, C. Labbé, X. Portier, P. Marie, C. Frilay, W. Yuan, W. Jadwisienczak, D. Ingram, C. Grygiel, J. Cardin. Growth and study of Tb3+ doped Nb2O5 thin films by radiofrequency magnetron sputtering: photoluminescence properties. Appl. Surf. Sci. 597, 153711 (2022) (Numerical data kindly provided by Julien Cardin)
Comments: Nb2O5 thin film deposited by reactive magnetron sputtering and annealed by rapid treatment annealing at 800°C
wavelength (um)	n	k
0.20664	2.03387	1.43107
0.20733	2.04871	1.43531
0.20803	2.06379	1.43936
0.20873	2.07909	1.44320
0.20943	2.09461	1.44682
0.21014	2.11035	1.45021
0.21086	2.12632	1.45337
0.21158	2.14251	1.45628
0.21230	2.15891	1.45893
0.21303	2.17553	1.46131
0.21377	2.19236	1.46342
0.21451	2.20941	1.46523
0.21525	2.22665	1.46675
0.21600	2.24410	1.46795
0.21676	2.26174	1.46883
0.21752	2.27957	1.46937
0.21828	2.29759	1.46957
0.21905	2.31578	1.46942
0.21983	2.33415	1.46889
0.22061	2.35267	1.46798
0.22140	2.37135	1.46668
0.22219	2.39017	1.46497
0.22299	2.40912	1.46285
0.22380	2.42819	1.46030
0.22461	2.44738	1.45731
0.22543	2.46665	1.45387
0.22625	2.48602	1.44997
0.22708	2.50545	1.44561
0.22791	2.52494	1.44076
0.22875	2.54446	1.43543
0.22960	2.56401	1.42960
0.23045	2.58356	1.42326
0.23131	2.60310	1.41641
0.23218	2.62261	1.40905
0.23305	2.64206	1.40115
0.23393	2.66144	1.39273
0.23482	2.68072	1.38378
0.23571	2.69989	1.37429
0.23661	2.71893	1.36426
0.23752	2.73780	1.35369
0.23843	2.75649	1.34259
0.23935	2.77498	1.33095
0.24028	2.79323	1.31877
0.24121	2.81123	1.30607
0.24216	2.82896	1.29285
0.24311	2.84639	1.27911
0.24406	2.86349	1.26487
0.24503	2.88025	1.25013
0.24600	2.89663	1.23490
0.24698	2.91263	1.21921
0.24797	2.92821	1.20305
0.24896	2.94336	1.18646
0.24997	2.95806	1.16944
0.25098	2.97228	1.15201
0.25200	2.98601	1.13420
0.25303	2.99923	1.11602
0.25407	3.01193	1.09750
0.25511	3.02409	1.07865
0.25617	3.03569	1.05950
0.25723	3.04673	1.04008
0.25830	3.05720	1.02041
0.25938	3.06708	1.00052
0.26047	3.07636	0.98042
0.26157	3.08506	0.96016
0.26268	3.09314	0.93974
0.26380	3.10062	0.91921
0.26492	3.10750	0.89857
0.26606	3.11377	0.87787
0.26721	3.11943	0.85713
0.26836	3.12449	0.83637
0.26953	3.12895	0.81562
0.27071	3.13283	0.79489
0.27189	3.13611	0.77423
0.27309	3.13882	0.75364
0.27430	3.14096	0.73315
0.27552	3.14255	0.71278
0.27675	3.14358	0.69255
0.27799	3.14408	0.67249
0.27924	3.14407	0.65260
0.28051	3.14354	0.63292
0.28178	3.14252	0.61344
0.28307	3.14102	0.59419
0.28437	3.13906	0.57519
0.28568	3.13665	0.55644
0.28700	3.13380	0.53797
0.28833	3.13055	0.51977
0.28968	3.12689	0.50186
0.29104	3.12284	0.48425
0.29241	3.11843	0.46695
0.29380	3.11367	0.44997
0.29520	3.10858	0.43330
0.29661	3.10316	0.41697
0.29804	3.09744	0.40096
0.29948	3.09144	0.38529
0.30093	3.08516	0.36996
0.30240	3.07862	0.35497
0.30388	3.07185	0.34032
0.30538	3.06484	0.32602
0.30689	3.05762	0.31207
0.30842	3.05021	0.29846
0.30996	3.04260	0.28519
0.31152	3.03483	0.27227
0.31309	3.02689	0.25970
0.31468	3.01880	0.24746
0.31629	3.01058	0.23557
0.31791	3.00223	0.22401
0.31955	2.99376	0.21279
0.32120	2.98519	0.20190
0.32287	2.97653	0.19135
0.32457	2.96778	0.18111
0.32627	2.95896	0.17121
0.32800	2.95008	0.16162
0.32974	2.94113	0.15235
0.33151	2.93214	0.14339
0.33329	2.92311	0.13473
0.33509	2.91405	0.12639
0.33691	2.90496	0.11835
0.33875	2.89585	0.11060
0.34062	2.88673	0.10315
0.34250	2.87761	0.09599
0.34440	2.86849	0.08911
0.34632	2.85938	0.08252
0.34827	2.85029	0.07621
0.35024	2.84121	0.07017
0.35223	2.83216	0.06440
0.35424	2.82315	0.05890
0.35628	2.81417	0.05367
0.35834	2.80523	0.04870
0.36042	2.79635	0.04399
0.36253	2.78752	0.03953
0.36466	2.77874	0.03533
0.36682	2.77003	0.03137
0.36900	2.76139	0.02766
0.37121	2.75283	0.02420
0.37345	2.74435	0.02097
0.37571	2.73596	0.01799
0.37800	2.72765	0.01524
0.38032	2.71945	0.01273
0.38267	2.71136	0.01044
0.38504	2.70337	0.00839
0.38745	2.69551	0.00657
0.38989	2.68778	0.00497
0.39235	2.68019	0.00360
0.39485	2.67276	0.00245
0.39738	2.66549	0.00152
0.39995	2.65840	0.00082
0.40255	2.65151	0.00033
0.40518	2.64486	5.90E-05
0.40784	2.63852	0
0.41054	2.63254	0
0.41328	2.62682	0
0.41605	2.62131	0
0.41886	2.61600	0
0.42171	2.61085	0
0.42460	2.60587	0
0.42753	2.60103	0
0.43050	2.59633	0
0.43351	2.59176	0
0.43656	2.58731	0
0.43966	2.58297	0
0.44280	2.57875	0
0.44599	2.57462	0
0.44922	2.57060	0
0.45250	2.56667	0
0.45582	2.56283	0
0.45920	2.55907	0
0.46263	2.55540	0
0.46611	2.55182	0
0.46964	2.54831	0
0.47322	2.54487	0
0.47686	2.54150	0
0.48056	2.53821	0
0.48431	2.53498	0
0.48813	2.53183	0
0.49200	2.52873	0
0.49594	2.52569	0
0.49994	2.52272	0
0.50400	2.51980	0
0.50813	2.51694	0
0.51233	2.51413	0
0.51660	2.51138	0
0.52094	2.50868	0
0.52536	2.50603	0
0.52985	2.50343	0
0.53441	2.50087	0
0.53906	2.49837	0
0.54379	2.49591	0
0.54860	2.49349	0
0.55350	2.49112	0
0.55849	2.48879	0
0.56356	2.48650	0
0.56873	2.48426	0
0.57400	2.48205	0
0.57936	2.47988	0
0.58483	2.47775	0
0.59040	2.47566	0
0.59608	2.47361	0
0.60186	2.47159	0
0.60776	2.46960	0
0.61378	2.46765	0
0.61992	2.46574	0
0.62618	2.46385	0
0.63257	2.46200	0
0.63909	2.46018	0
0.64575	2.45840	0
0.65255	2.45664	0
0.65949	2.45491	0
0.66658	2.45322	0
0.67383	2.45155	0
0.68123	2.44991	0
0.68880	2.44830	0
0.69654	2.44672	0
0.70445	2.44517	0
0.71255	2.44364	0
0.72084	2.44214	0
0.72932	2.44066	0
0.73800	2.43921	0
0.74689	2.43779	0
0.75600	2.43639	0
0.76533	2.43501	0
0.77490	2.43366	0
0.78471	2.43234	0
0.79477	2.43103	0
0.80509	2.42975	0
0.81568	2.42850	0
0.82656	2.42726	0
