Material: main / ZnS / Patwardhan
Optical constants. G. N. Patwardhan, J. S. Ginsberg, C. Y. Chen, M. M. Jadidi, A. L. Gaeta. Nonlinear refractive index of solids in mid-infrared, Opt. Lett. 46, 1824 (2021)
Comments: Polycrystalline ZnS. 100 fs. Spectrally resolved two-beam coupling.
Specs: {"n2_method": "SRTBC", "pulse_duration": "100e-15"}
wavelength (um)	n	2
2.3	4.78e-19
3.5	4.55e-19
4.5	5.38e-19
8.3	3.98e-19
