Material: main / TiO2 / Jolivet-anatase
Optical constants. A. Jolivet, C. Labbé, C. Frilay, O. Debieu, P. Marie, B. Horcholle, F. Lemarié, X. Portier, C. Grygiel, S. Duprey, W. Jadwisienczak, D. Ingram, M. Upadhyay, A. David, A. Fouchet, U. Lüders, J. Cardin. Structural, optical, and electrical properties of TiO2 thin films deposited by ALD: Impact of the substrate, the deposited thickness and the deposition temperature. Appl. Surf. Sci. 608, 155214 (2023) (Numerical data kindly provided by Julien Cardin)
Comments: TiO2 anatase thin film deposited by ALD at 300 °C
wavelength (um)	n	k
0.20664	1.62407	1.32064
0.20733	1.63168	1.32720
0.20803	1.63943	1.33378
0.20873	1.64730	1.34037
0.20943	1.65531	1.34696
0.21014	1.66346	1.35357
0.21086	1.67175	1.36019
0.21158	1.68018	1.36682
0.21230	1.68875	1.37346
0.21303	1.69747	1.38010
0.21377	1.70635	1.38675
0.21451	1.71538	1.39340
0.21525	1.72456	1.40006
0.21600	1.73391	1.40672
0.21676	1.74343	1.41338
0.21752	1.75311	1.42004
0.21828	1.76296	1.42670
0.21905	1.77300	1.43335
0.21983	1.78321	1.44000
0.22061	1.79361	1.44664
0.22140	1.80419	1.45327
0.22219	1.81497	1.45988
0.22299	1.82595	1.46649
0.22380	1.83713	1.47307
0.22461	1.84851	1.47964
0.22543	1.86011	1.48618
0.22625	1.87193	1.49270
0.22708	1.88397	1.49919
0.22791	1.89623	1.50565
0.22875	1.90873	1.51207
0.22960	1.92147	1.51846
0.23045	1.93445	1.52480
0.23131	1.94768	1.53109
0.23218	1.96117	1.53734
0.23305	1.97492	1.54352
0.23393	1.98895	1.54964
0.23482	2.00325	1.55569
0.23571	2.01783	1.56167
0.23661	2.03270	1.56757
0.23752	2.04787	1.57338
0.23843	2.06334	1.57910
0.23935	2.07912	1.58471
0.24028	2.09523	1.59022
0.24121	2.11166	1.59560
0.24216	2.12843	1.60086
0.24311	2.14554	1.60597
0.24406	2.16300	1.61094
0.24503	2.18082	1.61575
0.24600	2.19901	1.62038
0.24698	2.21758	1.62483
0.24797	2.23653	1.62907
0.24896	2.25588	1.63311
0.24997	2.27563	1.63691
0.25098	2.29579	1.64046
0.25200	2.31637	1.64375
0.25303	2.33737	1.64676
0.25407	2.35881	1.64946
0.25511	2.38069	1.65183
0.25617	2.40303	1.65386
0.25723	2.42582	1.65551
0.25830	2.44907	1.65677
0.25938	2.47279	1.65759
0.26047	2.49698	1.65796
0.26157	2.52165	1.65785
0.26268	2.54680	1.65721
0.26380	2.57243	1.65601
0.26492	2.59855	1.65423
0.26606	2.62514	1.65181
0.26721	2.65221	1.64873
0.26836	2.67974	1.64493
0.26953	2.70774	1.64037
0.27071	2.73619	1.63500
0.27190	2.76507	1.62878
0.27309	2.79437	1.62165
0.27430	2.82406	1.61356
0.27552	2.85412	1.60446
0.27675	2.88452	1.59429
0.27799	2.91522	1.58299
0.27924	2.94618	1.57051
0.28051	2.97735	1.55678
0.28178	3.00868	1.54176
0.28307	3.04009	1.52538
0.28437	3.07154	1.50758
0.28568	3.10292	1.48832
0.28700	3.13417	1.46755
0.28834	3.16518	1.44521
0.28968	3.19586	1.42127
0.29104	3.22608	1.39570
0.29242	3.25575	1.36847
0.29380	3.28472	1.33956
0.29520	3.31286	1.30897
0.29661	3.34004	1.27671
0.29804	3.36611	1.24279
0.29948	3.39092	1.20725
0.30093	3.41432	1.17015
0.30240	3.43616	1.13155
0.30388	3.45630	1.09153
0.30538	3.47459	1.05021
0.30689	3.49089	1.00769
0.30842	3.50509	0.96412
0.30996	3.51707	0.91966
0.31152	3.52672	0.87446
0.31309	3.53397	0.82872
0.31468	3.53875	0.78262
0.31629	3.54101	0.73636
0.31791	3.54075	0.69016
0.31955	3.53796	0.64422
0.32120	3.53265	0.59875
0.32288	3.52489	0.55395
0.32457	3.51473	0.51003
0.32627	3.50225	0.46718
0.32800	3.48758	0.42557
0.32975	3.47082	0.38537
0.33151	3.45211	0.34673
0.33329	3.43161	0.30980
0.33509	3.40946	0.27468
0.33691	3.38584	0.24149
0.33875	3.36092	0.21031
0.34062	3.33488	0.18121
0.34250	3.30789	0.15424
0.34440	3.28013	0.12944
0.34632	3.25178	0.10685
0.34827	3.22302	0.08647
0.35024	3.19404	0.06830
0.35223	3.16499	0.05234
0.35424	3.13607	0.03857
0.35628	3.10746	0.02697
0.35834	3.07935	0.01750
0.36042	3.05193	0.01011
0.36253	3.02544	0.00478
0.36466	3.00015	0.00145
0.36682	2.97647	5.20E-05
0.36900	2.95530	0
0.37121	2.93613	0
0.37345	2.91834	0
0.37571	2.90167	0
0.37800	2.88596	0
0.38032	2.87107	0
0.38267	2.85693	0
0.38504	2.84344	0
0.38745	2.83055	0
0.38989	2.81820	0
0.39236	2.80636	0
0.39485	2.79497	0
0.39739	2.78402	0
0.39995	2.77347	0
0.40255	2.76328	0
0.40518	2.75345	0
0.40784	2.74395	0
0.41054	2.73475	0
0.41328	2.72584	0
0.41605	2.71721	0
0.41887	2.70884	0
0.42171	2.70072	0
0.42460	2.69284	0
0.42753	2.68517	0
0.43050	2.67772	0
0.43351	2.67048	0
0.43656	2.66343	0
0.43966	2.65656	0
0.44280	2.64988	0
0.44599	2.64336	0
0.44922	2.63701	0
0.45250	2.63082	0
0.45582	2.62477	0
0.45920	2.61888	0
0.46263	2.61312	0
0.46611	2.60750	0
0.46964	2.60201	0
0.47322	2.59665	0
0.47686	2.59140	0
0.48056	2.58628	0
0.48431	2.58127	0
0.48813	2.57637	0
0.49200	2.57157	0
0.49594	2.56688	0
0.49994	2.56229	0
0.50400	2.55780	0
0.50813	2.55340	0
0.51233	2.54909	0
0.51660	2.54487	0
0.52094	2.54073	0
0.52536	2.53668	0
0.52985	2.53272	0
0.53441	2.52883	0
0.53906	2.52502	0
0.54379	2.52128	0
0.54860	2.51762	0
0.55350	2.51403	0
0.55849	2.51051	0
0.56356	2.50705	0
0.56873	2.50367	0
0.57400	2.50034	0
0.57937	2.49709	0
0.58483	2.49389	0
0.59040	2.49075	0
0.59608	2.48767	0
0.60187	2.48465	0
0.60777	2.48169	0
0.61378	2.47878	0
0.61992	2.47593	0
0.62618	2.47312	0
0.63257	2.47037	0
0.63909	2.46767	0
0.64575	2.46502	0
0.65255	2.46242	0
0.65949	2.45987	0
0.66658	2.45736	0
0.67383	2.45490	0
0.68123	2.45249	0
0.68880	2.45011	0
0.69654	2.44779	0
0.70446	2.44550	0
0.71255	2.44326	0
0.72084	2.44105	0
0.72932	2.43889	0
0.73800	2.43677	0
0.74689	2.43468	0
0.75600	2.43264	0
0.76533	2.43063	0
0.77490	2.42866	0
0.78471	2.42673	0
0.79477	2.42483	0
0.80509	2.42296	0
0.81569	2.42114	0
0.82656	2.41934	0
