Material: main / TiO2 / Jolivet-amorphous
Optical constants. A. Jolivet, C. Labbé, C. Frilay, O. Debieu, P. Marie, B. Horcholle, F. Lemarié, X. Portier, C. Grygiel, S. Duprey, W. Jadwisienczak, D. Ingram, M. Upadhyay, A. David, A. Fouchet, U. Lüders, J. Cardin. Structural, optical, and electrical properties of TiO2 thin films deposited by ALD: Impact of the substrate, the deposited thickness and the deposition temperature. Appl. Surf. Sci. 608, 155214 (2023) (Numerical data kindly provided by Julien Cardin)
Comments: TiO2 amorphous thin film deposited by ALD at 200 °C
wavelength (um)	n	k
0.20664	1.78909	1.29515
0.20733	1.79762	1.29987
0.20803	1.80629	1.30458
0.20873	1.81508	1.30926
0.20943	1.82399	1.31391
0.21014	1.83304	1.31854
0.21086	1.84222	1.32314
0.21158	1.85154	1.32771
0.21230	1.86099	1.33225
0.21303	1.87059	1.33675
0.21377	1.88033	1.34121
0.21451	1.89021	1.34563
0.21525	1.90024	1.35002
0.21600	1.91042	1.35436
0.21676	1.92075	1.35865
0.21752	1.93124	1.36289
0.21828	1.94189	1.36708
0.21905	1.95270	1.37122
0.21983	1.96367	1.37530
0.22061	1.97481	1.37931
0.22140	1.98612	1.38327
0.22219	1.99760	1.38715
0.22299	2.00926	1.39096
0.22380	2.02110	1.39470
0.22461	2.03312	1.39836
0.22543	2.04532	1.40193
0.22625	2.05772	1.40541
0.22708	2.07030	1.40881
0.22791	2.08308	1.41210
0.22875	2.09605	1.41529
0.22960	2.10923	1.41837
0.23045	2.12261	1.42133
0.23131	2.13620	1.42418
0.23218	2.15000	1.42690
0.23305	2.16402	1.42949
0.23393	2.17825	1.43193
0.23482	2.19271	1.43423
0.23571	2.20738	1.43637
0.23661	2.22229	1.43836
0.23752	2.23742	1.44017
0.23843	2.25279	1.44180
0.23935	2.26840	1.44324
0.24028	2.28424	1.44448
0.24121	2.30033	1.44552
0.24216	2.31666	1.44633
0.24311	2.33324	1.44692
0.24406	2.35006	1.44726
0.24503	2.36714	1.44735
0.24600	2.38447	1.44718
0.24698	2.40205	1.44672
0.24797	2.41989	1.44597
0.24896	2.43798	1.44492
0.24997	2.45633	1.44354
0.25098	2.47493	1.44182
0.25200	2.49379	1.43975
0.25303	2.51290	1.43730
0.25407	2.53226	1.43446
0.25511	2.55187	1.43122
0.25617	2.57172	1.42754
0.25723	2.59182	1.42342
0.25830	2.61214	1.41883
0.25938	2.63269	1.41375
0.26047	2.65347	1.40816
0.26157	2.67445	1.40203
0.26268	2.69563	1.39534
0.26380	2.71700	1.38807
0.26492	2.73854	1.38019
0.26606	2.76024	1.37167
0.26721	2.78208	1.36250
0.26836	2.80404	1.35265
0.26953	2.82611	1.34208
0.27071	2.84824	1.33077
0.27190	2.87043	1.31870
0.27309	2.89263	1.30584
0.27430	2.91483	1.29217
0.27552	2.93697	1.27765
0.27675	2.95904	1.26227
0.27799	2.98097	1.24601
0.27924	3.00274	1.22883
0.28051	3.02428	1.21073
0.28178	3.04556	1.19168
0.28307	3.06652	1.17167
0.28437	3.08709	1.15069
0.28568	3.10723	1.12872
0.28700	3.12686	1.10578
0.28834	3.14592	1.08184
0.28968	3.16434	1.05692
0.29104	3.18205	1.03104
0.29242	3.19897	1.00419
0.29380	3.21503	0.97642
0.29520	3.23016	0.94773
0.29661	3.24428	0.91818
0.29804	3.25731	0.88780
0.29948	3.26918	0.85664
0.30093	3.27981	0.82476
0.30240	3.28914	0.79223
0.30388	3.29710	0.75911
0.30538	3.30362	0.72549
0.30689	3.30866	0.69146
0.30842	3.31216	0.65711
0.30996	3.31408	0.62254
0.31152	3.31439	0.58786
0.31309	3.31305	0.55318
0.31468	3.31006	0.51861
0.31629	3.30540	0.48427
0.31791	3.29909	0.45029
0.31955	3.29113	0.41678
0.32120	3.28155	0.38386
0.32288	3.27039	0.35166
0.32457	3.25769	0.32029
0.32627	3.24351	0.28986
0.32800	3.22792	0.26050
0.32975	3.21099	0.23229
0.33151	3.19281	0.20535
0.33329	3.17347	0.17977
0.33509	3.15308	0.15564
0.33691	3.13175	0.13303
0.33875	3.10959	0.11202
0.34062	3.08674	0.09267
0.34250	3.06331	0.07505
0.34440	3.03946	0.05920
0.34632	3.01534	0.04518
0.34827	2.99109	0.03300
0.35024	2.96690	0.02271
0.35223	2.94295	0.01433
0.35424	2.91946	0.00786
0.35628	2.89667	0.00332
0.35834	2.87493	7.12E-04
0.36042	2.85485	0
0.36253	2.83714	0
0.36466	2.82095	0
0.36682	2.80588	0
0.36900	2.79174	0
0.37121	2.77838	0
0.37345	2.76571	0
0.37571	2.75366	0
0.37800	2.74215	0
0.38032	2.73114	0
0.38267	2.72059	0
0.38504	2.71045	0
0.38745	2.70070	0
0.38989	2.69131	0
0.39236	2.68224	0
0.39485	2.67349	0
0.39739	2.66504	0
0.39995	2.65685	0
0.40255	2.64892	0
0.40518	2.64124	0
0.40784	2.63379	0
0.41054	2.62656	0
0.41328	2.61953	0
0.41605	2.61270	0
0.41887	2.60606	0
0.42171	2.59960	0
0.42460	2.59331	0
0.42753	2.58719	0
0.43050	2.58122	0
0.43351	2.57540	0
0.43656	2.56973	0
0.43966	2.56419	0
0.44280	2.55879	0
0.44599	2.55352	0
0.44922	2.54837	0
0.45250	2.54333	0
0.45582	2.53842	0
0.45920	2.53361	0
0.46263	2.52891	0
0.46611	2.52432	0
0.46964	2.51982	0
0.47322	2.51543	0
0.47686	2.51112	0
0.48056	2.50691	0
0.48431	2.50278	0
0.48813	2.49874	0
0.49200	2.49478	0
0.49594	2.49091	0
0.49994	2.48711	0
0.50400	2.48339	0
0.50813	2.47974	0
0.51233	2.47616	0
0.51660	2.47265	0
0.52094	2.46922	0
0.52536	2.46584	0
0.52985	2.46254	0
0.53441	2.45929	0
0.53906	2.45611	0
0.54379	2.45298	0
0.54860	2.44992	0
0.55350	2.44691	0
0.55849	2.44396	0
0.56356	2.44106	0
0.56873	2.43822	0
0.57400	2.43543	0
0.57937	2.43269	0
0.58483	2.42999	0
0.59040	2.42735	0
0.59608	2.42476	0
0.60187	2.42221	0
0.60777	2.41971	0
0.61378	2.41725	0
0.61992	2.41484	0
0.62618	2.41247	0
0.63257	2.41014	0
0.63909	2.40785	0
0.64575	2.40561	0
0.65255	2.40340	0
0.65949	2.40123	0
0.66658	2.39910	0
0.67383	2.39701	0
0.68123	2.39496	0
0.68880	2.39294	0
0.69654	2.39096	0
0.70446	2.38901	0
0.71255	2.38710	0
0.72084	2.38522	0
0.72932	2.38338	0
0.73800	2.38157	0
0.74689	2.37979	0
0.75600	2.37804	0
0.76533	2.37633	0
0.77490	2.37464	0
0.78471	2.37299	0
0.79477	2.37136	0
0.80509	2.36977	0
0.81569	2.36820	0
0.82656	2.36667	0
