Material: main / GaN / Kawashima
Optical constants. 1) T. Kawashima, H. Yoshikawa, S. Adachi. Optical properties of hexagonal GaN, J. Appl. Phys. 82, 3528-3535 (1997)2) S. Logothetidis, J. Petalas, M. Cardona, T. D. Moustakas. Optical properties and temperature dependence of the interband transitions of cubic and hexagonal GaN, Phys. Rev. B 50, 18017-18029 (1994)* Authors of Ref. 1 provide a simplified model of the interband transitions (MDF) based on their experimental data combined with experimental data from Ref. 2.[Calculation script (Python)]
Comments: Single-crystalline hexagonal GaN (α-GaN) film on (0001) sapphire substrate. Ordinary ray (o, E⊥c). Room temperature.
Specs: {"n_is_absolute": true, "wavelength_is_vacuum": true, "substrate": "sapphire"}
wavelength (um)	n	k
1.2398e-01	9.0117e-01	1.4895e+00
1.2442e-01	9.1466e-01	1.5044e+00
1.2486e-01	9.2873e-01	1.5191e+00
1.2530e-01	9.4340e-01	1.5336e+00
1.2575e-01	9.5867e-01	1.5478e+00
1.2620e-01	9.7455e-01	1.5617e+00
1.2665e-01	9.9104e-01	1.5752e+00
1.2710e-01	1.0081e+00	1.5883e+00
1.2756e-01	1.0258e+00	1.6010e+00
1.2803e-01	1.0441e+00	1.6131e+00
1.2849e-01	1.0630e+00	1.6247e+00
1.2896e-01	1.0823e+00	1.6356e+00
1.2943e-01	1.1022e+00	1.6458e+00
1.2991e-01	1.1226e+00	1.6553e+00
1.3039e-01	1.1434e+00	1.6640e+00
1.3087e-01	1.1645e+00	1.6718e+00
1.3135e-01	1.1860e+00	1.6786e+00
1.3184e-01	1.2076e+00	1.6845e+00
1.3234e-01	1.2294e+00	1.6894e+00
1.3284e-01	1.2512e+00	1.6933e+00
1.3334e-01	1.2730e+00	1.6960e+00
1.3384e-01	1.2945e+00	1.6978e+00
1.3435e-01	1.3158e+00	1.6984e+00
1.3486e-01	1.3366e+00	1.6980e+00
1.3538e-01	1.3569e+00	1.6966e+00
1.3590e-01	1.3765e+00	1.6942e+00
1.3642e-01	1.3953e+00	1.6910e+00
1.3695e-01	1.4133e+00	1.6869e+00
1.3748e-01	1.4302e+00	1.6822e+00
1.3802e-01	1.4461e+00	1.6769e+00
1.3856e-01	1.4607e+00	1.6712e+00
1.3911e-01	1.4742e+00	1.6652e+00
1.3966e-01	1.4863e+00	1.6591e+00
1.4021e-01	1.4972e+00	1.6531e+00
1.4077e-01	1.5068e+00	1.6473e+00
1.4133e-01	1.5152e+00	1.6420e+00
1.4190e-01	1.5223e+00	1.6373e+00
1.4247e-01	1.5283e+00	1.6333e+00
1.4305e-01	1.5332e+00	1.6304e+00
1.4363e-01	1.5373e+00	1.6286e+00
1.4421e-01	1.5405e+00	1.6281e+00
1.4481e-01	1.5432e+00	1.6291e+00
1.4540e-01	1.5455e+00	1.6317e+00
1.4600e-01	1.5477e+00	1.6360e+00
1.4661e-01	1.5500e+00	1.6421e+00
1.4722e-01	1.5526e+00	1.6500e+00
1.4783e-01	1.5560e+00	1.6599e+00
1.4845e-01	1.5605e+00	1.6716e+00
1.4908e-01	1.5665e+00	1.6851e+00
1.4971e-01	1.5744e+00	1.7002e+00
1.5035e-01	1.5847e+00	1.7167e+00
1.5099e-01	1.5977e+00	1.7342e+00
1.5164e-01	1.6138e+00	1.7521e+00
1.5229e-01	1.6334e+00	1.7697e+00
1.5295e-01	1.6565e+00	1.7862e+00
1.5361e-01	1.6831e+00	1.8005e+00
1.5428e-01	1.7125e+00	1.8116e+00
1.5496e-01	1.7439e+00	1.8187e+00
1.5564e-01	1.7761e+00	1.8210e+00
1.5633e-01	1.8074e+00	1.8185e+00
1.5703e-01	1.8362e+00	1.8117e+00
1.5773e-01	1.8613e+00	1.8017e+00
1.5843e-01	1.8820e+00	1.7900e+00
1.5915e-01	1.8979e+00	1.7783e+00
1.5987e-01	1.9098e+00	1.7681e+00
1.6059e-01	1.9183e+00	1.7605e+00
1.6132e-01	1.9247e+00	1.7563e+00
1.6206e-01	1.9302e+00	1.7558e+00
1.6281e-01	1.9358e+00	1.7590e+00
1.6356e-01	1.9425e+00	1.7654e+00
1.6432e-01	1.9509e+00	1.7748e+00
1.6509e-01	1.9616e+00	1.7865e+00
1.6587e-01	1.9751e+00	1.8001e+00
1.6665e-01	1.9916e+00	1.8148e+00
1.6744e-01	2.0111e+00	1.8303e+00
1.6823e-01	2.0339e+00	1.8460e+00
1.6904e-01	2.0599e+00	1.8613e+00
1.6985e-01	2.0891e+00	1.8758e+00
1.7067e-01	2.1213e+00	1.8891e+00
1.7150e-01	2.1565e+00	1.9007e+00
1.7233e-01	2.1944e+00	1.9102e+00
1.7318e-01	2.2348e+00	1.9173e+00
1.7403e-01	2.2773e+00	1.9216e+00
1.7489e-01	2.3218e+00	1.9227e+00
1.7576e-01	2.3677e+00	1.9205e+00
1.7664e-01	2.4147e+00	1.9147e+00
1.7753e-01	2.4624e+00	1.9051e+00
1.7842e-01	2.5102e+00	1.8916e+00
1.7933e-01	2.5577e+00	1.8742e+00
1.8024e-01	2.6044e+00	1.8530e+00
1.8117e-01	2.6498e+00	1.8280e+00
1.8210e-01	2.6934e+00	1.7994e+00
1.8304e-01	2.7348e+00	1.7675e+00
1.8399e-01	2.7737e+00	1.7327e+00
1.8496e-01	2.8097e+00	1.6953e+00
1.8593e-01	2.8426e+00	1.6556e+00
1.8691e-01	2.8723e+00	1.6142e+00
1.8791e-01	2.8986e+00	1.5714e+00
1.8891e-01	2.9215e+00	1.5278e+00
1.8993e-01	2.9410e+00	1.4835e+00
1.9095e-01	2.9573e+00	1.4392e+00
1.9199e-01	2.9704e+00	1.3950e+00
1.9304e-01	2.9805e+00	1.3513e+00
1.9410e-01	2.9878e+00	1.3084e+00
1.9517e-01	2.9926e+00	1.2665e+00
1.9625e-01	2.9950e+00	1.2257e+00
1.9735e-01	2.9953e+00	1.1862e+00
1.9845e-01	2.9936e+00	1.1481e+00
1.9957e-01	2.9903e+00	1.1114e+00
2.0071e-01	2.9856e+00	1.0763e+00
2.0185e-01	2.9795e+00	1.0426e+00
2.0301e-01	2.9723e+00	1.0105e+00
2.0419e-01	2.9642e+00	9.7990e-01
2.0537e-01	2.9552e+00	9.5077e-01
2.0657e-01	2.9456e+00	9.2308e-01
2.0779e-01	2.9355e+00	8.9679e-01
2.0901e-01	2.9250e+00	8.7185e-01
2.1026e-01	2.9141e+00	8.4820e-01
2.1151e-01	2.9030e+00	8.2579e-01
2.1279e-01	2.8917e+00	8.0457e-01
2.1408e-01	2.8803e+00	7.8446e-01
2.1538e-01	2.8689e+00	7.6542e-01
2.1670e-01	2.8575e+00	7.4740e-01
2.1804e-01	2.8461e+00	7.3033e-01
2.1939e-01	2.8348e+00	7.1416e-01
2.2076e-01	2.8236e+00	6.9885e-01
2.2215e-01	2.8126e+00	6.8434e-01
2.2355e-01	2.8018e+00	6.7058e-01
2.2497e-01	2.7911e+00	6.5754e-01
2.2642e-01	2.7807e+00	6.4517e-01
2.2788e-01	2.7705e+00	6.3343e-01
2.2935e-01	2.7605e+00	6.2229e-01
2.3085e-01	2.7508e+00	6.1169e-01
2.3237e-01	2.7413e+00	6.0163e-01
2.3391e-01	2.7321e+00	5.9205e-01
2.3546e-01	2.7231e+00	5.8292e-01
2.3704e-01	2.7144e+00	5.7423e-01
2.3864e-01	2.7060e+00	5.6594e-01
2.4026e-01	2.6979e+00	5.5803e-01
2.4191e-01	2.6900e+00	5.5047e-01
2.4358e-01	2.6824e+00	5.4324e-01
2.4527e-01	2.6751e+00	5.3631e-01
2.4698e-01	2.6680e+00	5.2966e-01
2.4872e-01	2.6613e+00	5.2328e-01
2.5048e-01	2.6548e+00	5.1715e-01
2.5227e-01	2.6485e+00	5.1123e-01
2.5408e-01	2.6426e+00	5.0553e-01
2.5592e-01	2.6369e+00	5.0001e-01
2.5778e-01	2.6315e+00	4.9467e-01
2.5968e-01	2.6263e+00	4.8949e-01
2.6160e-01	2.6214e+00	4.8444e-01
2.6355e-01	2.6168e+00	4.7953e-01
2.6553e-01	2.6124e+00	4.7472e-01
2.6754e-01	2.6083e+00	4.7001e-01
2.6958e-01	2.6044e+00	4.6538e-01
2.7165e-01	2.6008e+00	4.6081e-01
2.7375e-01	2.5974e+00	4.5630e-01
2.7589e-01	2.5943e+00	4.5183e-01
2.7806e-01	2.5914e+00	4.4737e-01
2.8026e-01	2.5887e+00	4.4293e-01
2.8250e-01	2.5863e+00	4.3848e-01
2.8478e-01	2.5841e+00	4.3400e-01
2.8709e-01	2.5822e+00	4.2949e-01
2.8944e-01	2.5804e+00	4.2493e-01
2.9183e-01	2.5789e+00	4.2029e-01
2.9426e-01	2.5776e+00	4.1556e-01
2.9673e-01	2.5765e+00	4.1073e-01
2.9924e-01	2.5755e+00	4.0577e-01
3.0180e-01	2.5748e+00	4.0067e-01
3.0439e-01	2.5743e+00	3.9539e-01
3.0704e-01	2.5739e+00	3.8993e-01
3.0973e-01	2.5736e+00	3.8426e-01
3.1247e-01	2.5735e+00	3.7834e-01
3.1525e-01	2.5735e+00	3.7216e-01
3.1809e-01	2.5735e+00	3.6568e-01
3.2098e-01	2.5736e+00	3.5888e-01
3.2392e-01	2.5736e+00	3.5172e-01
3.2691e-01	2.5736e+00	3.4418e-01
3.2996e-01	2.5734e+00	3.3623e-01
3.3307e-01	2.5729e+00	3.2784e-01
3.3624e-01	2.5720e+00	3.1903e-01
3.3947e-01	2.5704e+00	3.0981e-01
3.4276e-01	2.5678e+00	3.0031e-01
3.4612e-01	2.5637e+00	2.9078e-01
3.4954e-01	2.5576e+00	2.8184e-01
3.5303e-01	2.5485e+00	2.7487e-01
3.5659e-01	2.5357e+00	2.7317e-01
3.6022e-01	2.5209e+00	2.8438e-01
3.6393e-01	2.5209e+00	3.2053e-01
3.6772e-01	2.5822e+00	3.5646e-01
3.7158e-01	2.6620e+00	3.0206e-01
3.7553e-01	2.6645e+00	2.1928e-01
3.7956e-01	2.6342e+00	1.7019e-01
3.8368e-01	2.6030e+00	1.4394e-01
3.8789e-01	2.5763e+00	1.2871e-01
3.9219e-01	2.5539e+00	1.1895e-01
3.9659e-01	2.5347e+00	1.1213e-01
4.0109e-01	2.5180e+00	1.0704e-01
4.0569e-01	2.5031e+00	1.0303e-01
4.1040e-01	2.4897e+00	9.9718e-02
4.1522e-01	2.4775e+00	9.6903e-02
4.2016e-01	2.4662e+00	9.4443e-02
4.2521e-01	2.4558e+00	9.2247e-02
4.3039e-01	2.4460e+00	9.0255e-02
4.3569e-01	2.4367e+00	8.8424e-02
4.4113e-01	2.4280e+00	8.6723e-02
4.4670e-01	2.4197e+00	8.5130e-02
4.5242e-01	2.4118e+00	8.3626e-02
4.5828e-01	2.4042e+00	8.2200e-02
4.6430e-01	2.3970e+00	8.0840e-02
4.7048e-01	2.3900e+00	7.9539e-02
4.7683e-01	2.3833e+00	7.8289e-02
4.8334e-01	2.3768e+00	7.7086e-02
4.9004e-01	2.3706e+00	7.5925e-02
4.9693e-01	2.3645e+00	7.4802e-02
5.0402e-01	2.3587e+00	7.3715e-02
5.1131e-01	2.3530e+00	7.2659e-02
5.1881e-01	2.3474e+00	7.1634e-02
5.2654e-01	2.3421e+00	7.0637e-02
5.3450e-01	2.3368e+00	6.9667e-02
5.4270e-01	2.3317e+00	6.8721e-02
5.5116e-01	2.3267e+00	6.7798e-02
5.5989e-01	2.3219e+00	6.6898e-02
5.6890e-01	2.3172e+00	6.6019e-02
5.7821e-01	2.3125e+00	6.5160e-02
5.8782e-01	2.3080e+00	6.4320e-02
5.9776e-01	2.3036e+00	6.3499e-02
6.0804e-01	2.2993e+00	6.2695e-02
6.1868e-01	2.2951e+00	6.1907e-02
6.2970e-01	2.2909e+00	6.1137e-02
6.4112e-01	2.2869e+00	6.0381e-02
6.5296e-01	2.2829e+00	5.9641e-02
6.6525e-01	2.2790e+00	5.8915e-02
6.7801e-01	2.2752e+00	5.8203e-02
6.9126e-01	2.2715e+00	5.7505e-02
7.0505e-01	2.2678e+00	5.6820e-02
7.1940e-01	2.2642e+00	5.6148e-02
7.3434e-01	2.2607e+00	5.5487e-02
7.4992e-01	2.2573e+00	5.4839e-02
7.6617e-01	2.2539e+00	5.4203e-02
7.8314e-01	2.2505e+00	5.3577e-02
8.0088e-01	2.2473e+00	5.2963e-02
8.1945e-01	2.2441e+00	5.2359e-02
8.3889e-01	2.2409e+00	5.1765e-02
8.5928e-01	2.2378e+00	5.1182e-02
8.8068e-01	2.2348e+00	5.0608e-02
9.0318e-01	2.2318e+00	5.0043e-02
9.2686e-01	2.2288e+00	4.9488e-02
9.5182e-01	2.2259e+00	4.8942e-02
9.7815e-01	2.2231e+00	4.8405e-02
