Material: doped crystals / Si-InP / Panah
Optical constants. M. E. A. Panah, O. Takayama, S. V. Morozov, K. E. Kudryavtsev, E. S. Semenova, A. V. Lavrinenko. Highly doped InP as a low loss plasmonic material for mid-IR region, Opt. Express 24, 29077-29088 (2016) (Numerical data kindly provided by Osamu Takayama)
Comments: 400 nm silicon-doped InP (Si:InP) layer on undoped InP substrate.
Specs: {"n_is_absolute": true, "wavelength_is_vacuum": true, "film_thickness": "400e-9", "substrate": "InP"}
wavelength (um)	n	k
5.00	2.319172	0.040498
5.07	2.293744	0.042688
5.14	2.267678	0.044989
5.21	2.240952	0.047408
5.28	2.213543	0.049953
5.35	2.185424	0.052631
5.42	2.156571	0.055453
5.49	2.126953	0.058428
5.56	2.096540	0.061568
5.63	2.065297	0.064886
5.70	2.033187	0.068395
5.77	2.000172	0.072112
5.84	1.966206	0.076055
5.91	1.931243	0.080245
5.98	1.895229	0.084704
6.05	1.858108	0.089459
6.12	1.819815	0.094542
6.19	1.780280	0.099989
6.26	1.739424	0.105841
6.33	1.697160	0.112148
6.40	1.653389	0.118969
6.47	1.608000	0.126376
6.54	1.560867	0.134453
6.61	1.511850	0.143307
6.68	1.460786	0.153067
6.75	1.407490	0.163896
6.82	1.351752	0.176005
6.89	1.293331	0.189663
6.96	1.231957	0.205225
7.03	1.167331	0.223170
7.10	1.099142	0.244145
7.17	1.027100	0.269052
7.24	0.951032	0.299140
7.31	0.871083	0.336132
7.38	0.788122	0.382257
7.45	0.704396	0.439940
7.52	0.624037	0.510678
7.59	0.552260	0.593264
7.66	0.492778	0.683379
7.73	0.446022	0.775837
7.80	0.410064	0.866923
7.87	0.382401	0.954804
7.94	0.360881	1.038881
8.01	0.343900	1.119164
8.08	0.330312	1.195906
8.15	0.319307	1.269435
8.22	0.310305	1.340083
8.29	0.302884	1.408153
8.36	0.296733	1.473916
8.43	0.291618	1.537609
8.50	0.287359	1.599435
8.57	0.283816	1.659574
8.64	0.280880	1.718179
8.71	0.278462	1.775385
8.78	0.276491	1.831312
8.85	0.274909	1.886061
8.92	0.273668	1.939726
8.99	0.272728	1.992388
9.06	0.272055	2.044119
9.13	0.271621	2.094983
9.20	0.271403	2.145040
9.27	0.271378	2.194342
9.34	0.271529	2.242935
9.41	0.271840	2.290865
9.48	0.272299	2.338168
9.55	0.272893	2.384882
9.62	0.273611	2.431039
9.69	0.274444	2.476669
9.76	0.275385	2.521800
9.83	0.276426	2.566458
9.90	0.277560	2.610666
9.97	0.278781	2.654445
10.04	0.280085	2.697817
10.11	0.281467	2.740800
10.18	0.282921	2.783411
10.25	0.284445	2.825667
10.32	0.286035	2.867584
10.39	0.287687	2.909176
10.46	0.289399	2.950455
10.53	0.291168	2.991436
10.60	0.292991	3.032129
10.67	0.294866	3.072546
10.74	0.296792	3.112698
10.81	0.298766	3.152594
10.88	0.300786	3.192244
10.95	0.302851	3.231656
11.02	0.304960	3.270840
11.09	0.307110	3.309802
11.16	0.309300	3.348552
11.23	0.311530	3.387095
11.30	0.313798	3.425439
11.37	0.316104	3.463590
11.44	0.318445	3.501554
11.51	0.320821	3.539338
11.58	0.323232	3.576947
11.65	0.325676	3.614386
11.72	0.328153	3.651660
11.79	0.330662	3.688774
11.86	0.333202	3.725734
11.93	0.335772	3.762543
12.00	0.338373	3.799206
12.07	0.341003	3.835727
12.14	0.343662	3.872110
12.21	0.346350	3.908358
12.28	0.349065	3.944476
12.35	0.351808	3.980466
12.42	0.354578	4.016333
12.49	0.357374	4.052078
12.56	0.360197	4.087707
12.63	0.363045	4.123221
12.70	0.365919	4.158623
12.77	0.368819	4.193916
12.84	0.371743	4.229104
12.91	0.374691	4.264187
12.98	0.377664	4.299170
13.05	0.380661	4.334054
13.12	0.383681	4.368841
13.19	0.386725	4.403534
13.26	0.389792	4.438136
13.33	0.392882	4.472647
13.40	0.395994	4.507071
13.47	0.399130	4.541409
13.54	0.402287	4.575662
13.61	0.405467	4.609834
13.68	0.408668	4.643926
13.75	0.411891	4.677938
13.82	0.415136	4.711874
13.89	0.418402	4.745735
13.96	0.421690	4.779522
14.03	0.424998	4.813236
14.10	0.428327	4.846880
14.17	0.431678	4.880455
14.24	0.435048	4.913962
14.31	0.438439	4.947402
14.38	0.441851	4.980777
14.45	0.445283	5.014088
14.52	0.448735	5.047337
14.59	0.452206	5.080524
14.66	0.455698	5.113651
14.73	0.459209	5.146719
14.80	0.462740	5.179730
14.87	0.466291	5.212683
14.94	0.469861	5.245580
15.01	0.473450	5.278423
15.08	0.477059	5.311212
15.15	0.480687	5.343948
15.22	0.484333	5.376633
15.29	0.487999	5.409267
15.36	0.491683	5.441851
15.43	0.495387	5.474385
15.50	0.499109	5.506872
15.57	0.502849	5.539312
15.64	0.506608	5.571705
15.71	0.510386	5.604052
15.78	0.514182	5.636355
15.85	0.517996	5.668614
15.92	0.521829	5.700829
15.99	0.525679	5.733002
16.06	0.529548	5.765134
16.13	0.533435	5.797224
16.20	0.537339	5.829274
16.27	0.541262	5.861284
16.34	0.545202	5.893255
16.41	0.549161	5.925189
16.48	0.553136	5.957084
16.55	0.557130	5.988942
16.62	0.561141	6.020764
16.69	0.565170	6.052551
16.76	0.569216	6.084302
16.83	0.573279	6.116018
16.90	0.577360	6.147701
16.97	0.581458	6.179350
17.04	0.585573	6.210966
17.11	0.589706	6.242550
17.18	0.593855	6.274102
17.25	0.598022	6.305623
17.32	0.602206	6.337114
17.39	0.606406	6.368574
17.46	0.610624	6.400004
17.53	0.614858	6.431405
17.60	0.619109	6.462778
17.67	0.623377	6.494123
17.74	0.627662	6.525439
17.81	0.631963	6.556729
17.88	0.636281	6.587992
17.95	0.640616	6.619228
18.02	0.644967	6.650439
18.09	0.649334	6.681624
18.16	0.653718	6.712785
18.23	0.658118	6.743921
18.30	0.662535	6.775033
18.37	0.666968	6.806121
18.44	0.671417	6.837186
18.51	0.675882	6.868228
18.58	0.680364	6.899248
18.65	0.684861	6.930246
18.72	0.689375	6.961223
18.79	0.693904	6.992178
18.86	0.698450	7.023113
18.93	0.703011	7.054027
19.00	0.707588	7.084922
19.07	0.712181	7.115797
19.14	0.716790	7.146653
19.21	0.721415	7.177490
19.28	0.726055	7.208309
19.35	0.730711	7.239109
19.42	0.735382	7.269893
19.49	0.740069	7.300659
19.56	0.744771	7.331408
19.63	0.749489	7.362141
19.70	0.754222	7.392859
19.77	0.758971	7.423560
19.84	0.763735	7.454246
19.91	0.768514	7.484917
19.98	0.773308	7.515574
20.05	0.778118	7.546217
20.12	0.782942	7.576846
20.19	0.787782	7.607461
20.26	0.792636	7.638064
20.33	0.797506	7.668654
20.40	0.802391	7.699232
20.47	0.807290	7.729798
20.54	0.812204	7.760353
20.61	0.817133	7.790896
20.68	0.822077	7.821429
20.75	0.827035	7.851952
20.82	0.832008	7.882465
20.89	0.836995	7.912968
20.96	0.841997	7.943462
21.03	0.847013	7.973948
21.10	0.852044	8.004425
21.17	0.857089	8.034894
21.24	0.862148	8.065356
21.31	0.867222	8.095811
21.38	0.872310	8.126260
21.45	0.877411	8.156702
21.52	0.882527	8.187138
21.59	0.887657	8.217569
21.66	0.892801	8.247995
21.73	0.897959	8.278417
21.80	0.903130	8.308834
21.87	0.908315	8.339248
21.94	0.913514	8.369659
22.01	0.918726	8.400067
22.08	0.923952	8.430473
22.15	0.929192	8.460878
22.22	0.934445	8.491281
22.29	0.939711	8.521684
22.36	0.944991	8.552086
22.43	0.950284	8.582488
22.50	0.955589	8.612892
22.57	0.960908	8.643296
22.64	0.966240	8.673703
22.71	0.971585	8.704112
22.78	0.976943	8.734524
22.85	0.982314	8.764940
22.92	0.987697	8.795359
22.99	0.993093	8.825784
23.06	0.998501	8.856214
23.13	1.003922	8.886650
23.20	1.009355	8.917092
23.27	1.014800	8.947541
23.34	1.020258	8.977999
23.41	1.025727	9.008465
23.48	1.031209	9.038940
23.55	1.036703	9.069426
23.62	1.042208	9.099922
23.69	1.047725	9.130429
23.76	1.053254	9.160949
23.83	1.058794	9.191482
23.90	1.064346	9.222028
23.97	1.069908	9.252589
24.04	1.075482	9.283166
24.11	1.081068	9.313758
24.18	1.086664	9.344369
24.25	1.092271	9.374997
24.32	1.097888	9.405644
24.39	1.103516	9.436312
24.46	1.109155	9.467000
24.53	1.114804	9.497711
24.60	1.120463	9.528444
24.67	1.126133	9.559202
24.74	1.131812	9.589986
24.81	1.137501	9.620796
24.88	1.143199	9.651633
24.95	1.148907	9.682500
25.02	1.154625	9.713397
25.09	1.160351	9.744325
25.16	1.166087	9.775287
25.23	1.171831	9.806283
25.30	1.177584	9.837314
25.37	1.183346	9.868383
25.44	1.189116	9.899491
25.51	1.194893	9.930640
25.58	1.200679	9.961831
25.65	1.206473	9.993066
25.72	1.212274	10.024346
25.79	1.218082	10.055675
25.86	1.223897	10.087052
25.93	1.229719	10.118482
26.00	1.235548	10.149965
26.07	1.241383	10.181505
26.14	1.247224	10.213102
26.21	1.253071	10.244760
26.28	1.258923	10.276481
26.35	1.264781	10.308268
26.42	1.270644	10.340123
26.49	1.276511	10.372049
26.56	1.282383	10.404049
26.63	1.288259	10.436126
26.70	1.294138	10.468283
26.77	1.300021	10.500524
26.84	1.305907	10.532852
26.91	1.311796	10.565270
26.98	1.317686	10.597782
27.05	1.323579	10.630393
27.12	1.329473	10.663106
27.19	1.335369	10.695926
27.26	1.341264	10.728858
27.33	1.347160	10.761905
27.40	1.353056	10.795074
27.47	1.358950	10.828369
27.54	1.364843	10.861796
27.61	1.370735	10.895361
27.68	1.376623	10.929069
27.75	1.382509	10.962929
27.82	1.388391	10.996945
27.89	1.394269	11.031126
27.96	1.400141	11.065479
28.03	1.406008	11.100012
28.10	1.411868	11.134733
28.17	1.417721	11.169653
28.24	1.423566	11.204779
28.31	1.429402	11.240123
28.38	1.435229	11.275694
28.45	1.441045	11.311505
28.52	1.446849	11.347567
28.59	1.452640	11.383894
28.66	1.458418	11.420499
28.73	1.464182	11.457396
28.80	1.469929	11.494602
28.87	1.475659	11.532133
28.94	1.481371	11.570006
29.01	1.487064	11.608242
29.08	1.492735	11.646860
29.15	1.498384	11.685883
29.22	1.504008	11.725334
29.29	1.509608	11.765239
29.36	1.515180	11.805626
29.43	1.520723	11.846523
29.50	1.526236	11.887964
29.57	1.531715	11.929982
29.64	1.537161	11.972616
29.71	1.542569	12.015907
29.78	1.547939	12.059899
29.85	1.553269	12.104641
29.92	1.558554	12.150186
29.99	1.563795	12.196592
