Material: main / KTiOAsO4 / Jansonas-XZ
Optical constants. G. Jansonas, R. Budriūnas, M. Vengris, A. Varanavičius. Interferometric measurements of nonlinear refractive index in the infrared spectral range, Opt. Express 30, 30507–30524 (2022)
Comments: Single crystal KTiOAsO4 (KTA). Polar angle (θ): 45°, azimuthal angle (φ): 0°. Electric field was parallel to the XZ dielectric plane. 230 fs, 170 fs and 190 fs at 1.03 μm, 2.2 μm and 3.2 μm, respectively. Estimated Kerr values were 2.3e-19, 2.6e-19 and 3e-19 at 1.03 μm, 2.2 μm and 3.2 μm, respectively. Fourier Interferometry.
Specs: {"n2_method": "FI", "pulse_duration": "230e-15 170e-15 190e-15"}
wavelength (um)	n	2
1.03	1.7e-19
2.2	1.3e-19
3.2	2.2e-19
