Material: glass / BK7 / Adair
Optical constants. R. Adair, L. L. Chase, S. A. Payne. Nonlinear refractive-index measurements of glasses using three-wave frequency mixing, J. Opt. Soc. Am. B 4, 875 (1987)
Comments: 3 ns. Three-wave mixing.
Specs: {"n2_method": "TWM", "pulse_duration": "3e-9"}
wavelength (um)	n	2
1.064	3.62e-20
