Material: main / SrF2 / Adair
Optical constants. R. Adair, L. L. Chase, S. A. Payne. Nonlinear refractive index of optical crystals, Phys. Rev. B 39, 3337 (1989)
Comments: SrF>sub>2[100]. 3 ns. Three-wave mixing.
Specs: {"n2_method": "TWM", "pulse_duration": "3e-9"}
wavelength (um)	n	2
1.064	1.46e-20
