Material: main / Y3Al5O12 / Bliss
Optical constants. E. S. Bliss, D. R. Speck, W. W. Simmons. Direct interferometric measurements of the nonlinear refractive index coefficient n2 in laser materials, Appl. Phys. Lett. 25, 728 (1974)
Comments: 150 ps. Time-resolved interferometry.
Specs: {"n2_method": "TRI", "pulse_duration": "150e-12"}
wavelength (um)	n	2
1.064	7.30e-20
