Material: main / Y3Al5O12 / Kabacinski
Optical constants. P. Kabaciński, T. M. Kardaś, Y. Stepanenko, C. Radzewicz. Nonlinear refractive index measurement by SPM-induced phase regression, Opt. Express 27, 11018 (2019)
Comments: 210 fs. SPM-induced phase regression.
Specs: {"n2_method": "SPMIPR", "pulse_duration": "210e-15"}
wavelength (um)	n	2
1.030	6.13e-20
