Material: main / Y3Al5O12 / Owyoung
Optical constants. A. Owyoung. Ellipse rotation studies in laser host materials, IEEE J. Quantum Electron. 9, 1064 (1973)
Comments: 13 ns. Ellipse rotation.
Specs: {"n2_method": "ER", "pulse_duration": "13e-9"}
wavelength (um)	n	2
1.064	9.41e-20
