Material: main / VO2 / Beaini-100C
Optical constants. R. Beaini, B. Baloukas, S. Loquai, J.E. Klemberg-Sapieha, L. Martinu. Thermochromic VO2-based smart radiator devices with ultralow refractive index cavities for increased performance, Sol. Energy Mater. Sol. Cells 205, 110260 (2020) (Data points extracted from Fig. 1)
Comments: 70 nm-thick VO2 film deposited on SiO2 substrate. 100 Â°C.
Specs: {"n_is_absolute": true, "wavelength_is_vacuum": true, "temperature": "100 Â°C", "film_thickness": "70e-9", "substrate": "SiO2"}
wavelength (um)	n	k
0.50	2.8968	0.5838
0.57	2.6388	0.3753
0.64	2.3956	0.3876
0.71	2.1599	0.4286
0.78	1.9458	0.6599
0.85	1.7742	0.9000
0.92	1.6653	1.1171
0.99	1.6286	1.3934
1.06	1.6278	1.6881
1.13	1.6558	1.9017
1.20	1.6988	2.1291
1.27	1.7514	2.3301
1.34	1.8160	2.5837
1.41	1.8996	2.7801
1.48	1.8724	2.8402
1.55	1.9277	2.9058
1.62	1.9941	2.9968
1.69	2.0626	3.1860
1.76	2.1519	3.3028
1.83	2.2567	3.4855
1.90	2.3695	3.6331
1.97	2.4863	3.7694
2.04	2.6031	3.8657
2.11	2.7146	4.0131
2.18	2.8205	4.0745
2.25	2.9255	4.1620
2.32	3.0333	4.2660
2.39	3.1427	4.3609
2.46	3.2509	4.4289
2.53	3.3549	4.4911
2.60	3.4528	4.5515
2.67	3.5438	4.6164
2.74	3.6291	4.6930
2.81	3.7118	4.7672
2.88	3.7943	4.8253
2.95	3.8781	4.8697
3.02	3.9629	4.9176
3.09	4.0485	4.9746
3.16	4.1344	5.0373
3.23	4.2204	5.1033
3.30	4.3068	5.1642
3.37	4.3940	5.2167
3.44	4.4818	5.2659
3.51	4.5700	5.3149
3.58	4.6580	5.3661
3.65	4.7457	5.4182
3.72	4.8331	5.4653
3.79	4.9198	5.5061
3.86	5.0069	5.5413
3.93	5.0964	5.5702
4.00	5.1856	5.5948
4.07	5.2700	5.6194
4.14	5.3488	5.6471
4.21	5.4257	5.6769
4.28	5.5042	5.7057
4.35	5.5838	5.7308
4.42	5.6621	5.7489
4.49	5.7372	5.7597
4.56	5.8083	5.7664
4.63	5.8759	5.7730
4.70	5.9409	5.7827
4.77	6.0040	5.7951
4.84	6.0658	5.8094
4.91	6.1269	5.8246
4.98	6.1873	5.8401
5.05	6.2474	5.8556
5.12	6.3073	5.8708
5.19	6.3669	5.8854
5.26	6.4260	5.8993
5.33	6.4845	5.9126
5.40	6.5426	5.9254
5.47	6.6000	5.9375
5.54	6.6569	5.9492
5.61	6.7130	5.9607
5.68	6.7681	5.9722
5.75	6.8223	5.9840
5.82	6.8756	5.9959
5.89	6.9283	6.0074
5.96	6.9807	6.0182
6.03	7.0331	6.0278
6.10	7.0857	6.0359
6.17	7.1387	6.0422
6.24	7.1919	6.0466
6.31	7.2454	6.0492
6.38	7.2992	6.0504
6.45	7.3529	6.0508
6.52	7.4062	6.0509
6.59	7.4588	6.0507
6.66	7.5103	6.0495
6.73	7.5605	6.0465
6.80	7.6090	6.0409
6.87	7.6557	6.0330
6.94	7.7006	6.0236
7.01	7.7432	6.0137
7.08	7.7829	6.0041
7.15	7.8193	5.9948
7.22	7.8529	5.9849
7.29	7.8856	5.9734
7.36	7.9201	5.9602
7.43	7.9558	5.9459
7.50	7.9892	5.9314
7.57	8.0187	5.9179
7.64	8.0447	5.9061
7.71	8.0687	5.8956
7.78	8.0913	5.8849
7.85	8.1129	5.8726
7.92	8.1336	5.8590
7.99	8.1534	5.8449
8.06	8.1720	5.8308
8.13	8.1892	5.8174
8.20	8.2049	5.8053
8.27	8.2188	5.7948
8.34	8.2303	5.7863
8.41	8.2391	5.7795
8.48	8.2453	5.7739
8.55	8.2499	5.7689
8.62	8.2533	5.7639
8.69	8.2561	5.7587
8.76	8.2583	5.7537
8.83	8.2600	5.7499
8.90	8.2613	5.7479
8.97	8.2619	5.7474
9.04	8.2618	5.7481
9.11	8.2608	5.7500
9.18	8.2586	5.7536
9.25	8.2548	5.7595
9.32	8.2488	5.7672
9.39	8.2396	5.7754
9.46	8.2268	5.7832
9.53	8.2124	5.7911
9.60	8.1984	5.7998
9.67	8.1856	5.8100
9.74	8.1735	5.8232
9.81	8.1616	5.8406
9.88	8.1498	5.8621
9.95	8.1379	5.8857
10.02	8.1259	5.9101
10.09	8.1139	5.9353
10.16	8.1019	5.9618
10.23	8.0903	5.9905
10.30	8.0792	6.0244
10.37	8.0690	6.0662
10.44	8.0606	6.1105
10.51	8.0547	6.1537
10.58	8.0509	6.1970
10.65	8.0479	6.2415
10.72	8.0456	6.2890
10.79	8.0450	6.3382
10.86	8.0467	6.3858
10.93	8.0513	6.4323
11.00	8.0592	6.4794
11.07	8.0703	6.5301
11.14	8.0850	6.5899
11.21	8.1036	6.6511
11.28	8.1262	6.7065
11.35	8.1515	6.7599
11.42	8.1783	6.8132
11.49	8.2050	6.8656
11.56	8.2322	6.9151
11.63	8.2617	6.9624
11.70	8.2949	7.0094
11.77	8.3324	7.0588
11.84	8.3734	7.1119
11.91	8.4168	7.1566
11.98	8.4615	7.1943
12.05	8.5062	7.2294
12.12	8.5504	7.2633
12.19	8.5964	7.2969
12.26	8.6445	7.3299
12.33	8.6935	7.3611
12.40	8.7425	7.3899
12.47	8.7913	7.4165
12.54	8.8396	7.4410
12.61	8.8872	7.4634
12.68	8.9341	7.4834
12.75	8.9803	7.5005
12.82	9.0259	7.5153
12.89	9.0709	7.5283
12.96	9.1153	7.5401
13.03	9.1590	7.5506
13.10	9.2021	7.5589
13.17	9.2445	7.5640
13.24	9.2861	7.5654
13.31	9.3267	7.5645
13.38	9.3659	7.5633
13.45	9.4032	7.5636
13.52	9.4381	7.5661
13.59	9.4703	7.5694
13.66	9.5003	7.5716
13.73	9.5291	7.5714
13.80	9.5573	7.5681
13.87	9.5847	7.5633
13.94	9.6112	7.5589
14.01	9.6363	7.5565
14.08	9.6595	7.5566
14.15	9.6801	7.5585
14.22	9.6982	7.5610
14.29	9.7144	7.5630
14.36	9.7296	7.5633
14.43	9.7449	7.5627
14.50	9.7601	7.5624
14.57	9.7746	7.5629
14.64	9.7879	7.5640
14.71	9.7998	7.5656
14.78	9.8106	7.5680
14.85	9.8207	7.5712
14.92	9.8305	7.5755
14.99	9.8405	7.5810
15.06	9.8508	7.5873
15.13	9.8614	7.5943
15.20	9.8717	7.6019
15.27	9.8813	7.6102
15.34	9.8899	7.6193
15.41	9.8971	7.6297
15.48	9.9034	7.6414
15.55	9.9094	7.6536
15.62	9.9157	7.6657
15.69	9.9228	7.6776
15.76	9.9312	7.6894
15.83	9.9411	7.7011
15.90	9.9519	7.7130
15.97	9.9633	7.7257
16.04	9.9749	7.7407
16.11	9.9862	7.7590
16.18	9.9970	7.7802
16.25	10.0073	7.8021
16.32	10.0172	7.8228
16.39	10.0268	7.8402
16.46	10.0362	7.8535
16.53	10.0454	7.8653
16.60	10.0546	7.8788
16.67	10.0639	7.8968
16.74	10.0735	7.9189
16.81	10.0837	7.9429
16.88	10.0946	7.9670
16.95	10.1064	7.9892
17.02	10.1191	8.0082
17.09	10.1326	8.0260
17.16	10.1467	8.0451
17.23	10.1614	8.0684
17.30	10.1765	8.0949
17.37	10.1920	8.1216
17.44	10.2078	8.1458
17.51	10.2236	8.1655
17.58	10.2396	8.1824
17.65	10.2554	8.1991
17.72	10.2710	8.2173
17.79	10.2863	8.2370
17.86	10.3010	8.2575
17.93	10.3154	8.2783
18.00	10.3297	8.2988
18.07	10.3442	8.3190
18.14	10.3594	8.3400
18.21	10.3753	8.3631
18.28	10.3920	8.3880
18.35	10.4093	8.4131
18.42	10.4272	8.4371
18.49	10.4457	8.4586
18.56	10.4647	8.4756
18.63	10.4843	8.4893
18.70	10.5044	8.5040
18.77	10.5249	8.5247
18.84	10.5457	8.5515
18.91	10.5668	8.5804
18.98	10.5879	8.6077
19.05	10.6091	8.6295
19.12	10.6302	8.6445
19.19	10.6511	8.6563
19.26	10.6719	8.6696
19.33	10.6926	8.6879
19.40	10.7133	8.7098
19.47	10.7340	8.7323
19.54	10.7547	8.7530
19.61	10.7756	8.7690
19.68	10.7965	8.7808
19.75	10.8176	8.7919
19.82	10.8388	8.8065
19.89	10.8601	8.8276
19.96	10.8815	8.8520
20.03	10.9029	8.8755
20.10	10.9244	8.8941
20.17	10.9458	8.9072
20.24	10.9673	8.9178
20.31	10.9888	8.9289
20.38	11.0102	8.9434
20.45	11.0316	8.9619
20.52	11.0531	8.9822
20.59	11.0745	9.0016
20.66	11.0960	9.0178
20.73	11.1176	9.0313
20.80	11.1393	9.0440
20.87	11.1611	9.0581
20.94	11.1831	9.0755
21.01	11.2054	9.0948
21.08	11.2281	9.1134
21.15	11.2510	9.1288
21.22	11.2742	9.1392
21.29	11.2972	9.1469
21.36	11.3199	9.1546
21.43	11.3420	9.1650
21.50	11.3638	9.1795
21.57	11.3855	9.1964
21.64	11.4072	9.2138
21.71	11.4290	9.2300
21.78	11.4508	9.2446
21.85	11.4726	9.2581
21.92	11.4944	9.2710
21.99	11.5161	9.2838
22.06	11.5377	9.2967
22.13	11.5591	9.3093
22.20	11.5804	9.3214
22.27	11.6014	9.3330
22.34	11.6223	9.3443
22.41	11.6431	9.3557
22.48	11.6639	9.3673
22.55	11.6847	9.3793
22.62	11.7056	9.3916
22.69	11.7267	9.4038
22.76	11.7481	9.4157
22.83	11.7695	9.4270
22.90	11.7911	9.4383
22.97	11.8126	9.4500
23.04	11.8342	9.4625
23.11	11.8556	9.4758
23.18	11.8769	9.4894
23.25	11.8980	9.5026
23.32	11.9189	9.5150
23.39	11.9397	9.5265
23.46	11.9605	9.5372
23.53	11.9814	9.5467
23.60	12.0024	9.5547
23.67	12.0236	9.5621
23.74	12.0453	9.5704
23.81	12.0673	9.5810
23.88	12.0893	9.5937
23.95	12.1110	9.6066
24.02	12.1319	9.6183
24.09	12.1516	9.6276
24.16	12.1698	9.6340
24.23	12.1868	9.6391
24.30	12.2031	9.6445
24.37	12.2194	9.6522
24.44	12.2360	9.6647
24.51	12.2536	9.6828
24.58	12.2726	9.7035
24.65	12.2931	9.7213
24.72	12.3149	9.7309
24.79	12.3374	9.7375
24.86	12.3602	9.7493
24.93	12.3821	9.7684
25.00	12.4039	9.7902
