Material: main / VO2 / Beaini-25C
Optical constants. R. Beaini, B. Baloukas, S. Loquai, J.E. Klemberg-Sapieha, L. Martinu. Thermochromic VO2-based smart radiator devices with ultralow refractive index cavities for increased performance, Sol. Energy Mater. Sol. Cells 205, 110260 (2020) (Data points extracted from Fig. 1)
Comments: 70 nm-thick VO2 film deposited on SiO2 substrate. 25 Â°C.
Specs: {"n_is_absolute": true, "wavelength_is_vacuum": true, "temperature": "25 Â°C", "film_thickness": "70e-9", "substrate": "SiO2"}
wavelength (um)	n	k
0.50	3.3465	0.4190
0.57	3.1613	0.3463
0.64	3.0340	0.3266
0.71	2.9398	0.3275
0.78	2.9210	0.3508
0.85	2.9250	0.3884
0.92	2.9405	0.4181
0.99	2.9765	0.4438
1.06	3.0111	0.4628
1.13	3.0435	0.4599
1.20	3.0801	0.4353
1.27	3.1111	0.4098
1.34	3.1316	0.3921
1.41	3.1427	0.3735
1.48	3.1462	0.3548
1.55	3.1462	0.3388
1.62	3.1470	0.3259
1.69	3.1537	0.3175
1.76	3.1648	0.3110
1.83	3.1736	0.3012
1.90	3.1782	0.2902
1.97	3.1804	0.2806
2.04	3.1810	0.2744
2.11	3.1803	0.2712
2.18	3.1789	0.2695
2.25	3.1776	0.2680
2.32	3.1773	0.2661
2.39	3.1780	0.2632
2.46	3.1791	0.2590
2.53	3.1805	0.2525
2.60	3.1816	0.2426
2.67	3.1818	0.2329
2.74	3.1807	0.2281
2.81	3.1786	0.2262
2.88	3.1758	0.2255
2.95	3.1727	0.2252
3.02	3.1691	0.2250
3.09	3.1655	0.2245
3.16	3.1621	0.2234
3.23	3.1594	0.2218
3.30	3.1573	0.2209
3.37	3.1560	0.2216
3.44	3.1554	0.2237
3.51	3.1553	0.2262
3.58	3.1556	0.2286
3.65	3.1563	0.2303
3.72	3.1573	0.2307
3.79	3.1585	0.2298
3.86	3.1598	0.2291
3.93	3.1612	0.2297
4.00	3.1627	0.2310
4.07	3.1641	0.2322
4.14	3.1656	0.2331
4.21	3.1670	0.2337
4.28	3.1683	0.2340
4.35	3.1696	0.2344
4.42	3.1707	0.2350
4.49	3.1716	0.2359
4.56	3.1724	0.2365
4.63	3.1729	0.2362
4.70	3.1732	0.2348
4.77	3.1732	0.2327
4.84	3.1730	0.2305
4.91	3.1726	0.2285
4.98	3.1720	0.2271
5.05	3.1713	0.2272
5.12	3.1704	0.2278
5.19	3.1694	0.2272
5.26	3.1682	0.2254
5.33	3.1669	0.2230
5.40	3.1654	0.2206
5.47	3.1637	0.2184
5.54	3.1619	0.2169
5.61	3.1599	0.2161
5.68	3.1577	0.2152
5.75	3.1554	0.2134
5.82	3.1529	0.2108
5.89	3.1502	0.2082
5.96	3.1473	0.2063
6.03	3.1442	0.2057
6.10	3.1407	0.2062
6.17	3.1367	0.2069
6.24	3.1322	0.2069
6.31	3.1272	0.2056
6.38	3.1219	0.2034
6.45	3.1165	0.2009
6.52	3.1115	0.1988
6.59	3.1067	0.1975
6.66	3.1022	0.1968
6.73	3.0978	0.1962
6.80	3.0935	0.1947
6.87	3.0893	0.1919
6.94	3.0852	0.1885
7.01	3.0811	0.1853
7.08	3.0770	0.1832
7.15	3.0729	0.1825
7.22	3.0689	0.1825
7.29	3.0649	0.1823
7.36	3.0609	0.1808
7.43	3.0570	0.1777
7.50	3.0532	0.1744
7.57	3.0495	0.1723
7.64	3.0459	0.1719
7.71	3.0423	0.1724
7.78	3.0384	0.1730
7.85	3.0343	0.1732
7.92	3.0297	0.1722
7.99	3.0245	0.1700
8.06	3.0183	0.1677
8.13	3.0111	0.1664
8.20	3.0033	0.1660
8.27	2.9951	0.1662
8.34	2.9870	0.1665
8.41	2.9790	0.1666
8.48	2.9713	0.1660
8.55	2.9638	0.1648
8.62	2.9566	0.1632
8.69	2.9496	0.1618
8.76	2.9430	0.1605
8.83	2.9367	0.1594
8.90	2.9307	0.1584
8.97	2.9250	0.1575
9.04	2.9193	0.1567
9.11	2.9133	0.1563
9.18	2.9068	0.1564
9.25	2.8996	0.1567
9.32	2.8914	0.1569
9.39	2.8821	0.1566
9.46	2.8722	0.1553
9.53	2.8619	0.1526
9.60	2.8516	0.1493
9.67	2.8416	0.1472
9.74	2.8324	0.1474
9.81	2.8240	0.1493
9.88	2.8161	0.1513
9.95	2.8087	0.1523
10.02	2.8015	0.1503
10.09	2.7942	0.1443
10.16	2.7867	0.1373
10.23	2.7785	0.1336
10.30	2.7696	0.1340
10.37	2.7601	0.1363
10.44	2.7501	0.1392
10.51	2.7400	0.1415
10.58	2.7297	0.1423
10.65	2.7193	0.1417
10.72	2.7088	0.1404
10.79	2.6981	0.1392
10.86	2.6872	0.1384
10.93	2.6761	0.1378
11.00	2.6648	0.1372
11.07	2.6535	0.1365
11.14	2.6423	0.1353
11.21	2.6312	0.1341
11.28	2.6205	0.1331
11.35	2.6103	0.1327
11.42	2.6006	0.1325
11.49	2.5914	0.1326
11.56	2.5823	0.1329
11.63	2.5728	0.1331
11.70	2.5622	0.1335
11.77	2.5497	0.1342
11.84	2.5358	0.1351
11.91	2.5216	0.1363
11.98	2.5083	0.1372
12.05	2.4957	0.1377
12.12	2.4834	0.1374
12.19	2.4710	0.1360
12.26	2.4580	0.1341
12.33	2.4442	0.1324
12.40	2.4287	0.1316
12.47	2.4116	0.1317
12.54	2.3936	0.1322
12.61	2.3762	0.1327
12.68	2.3604	0.1331
12.75	2.3462	0.1332
12.82	2.3327	0.1331
12.89	2.3194	0.1329
12.96	2.3056	0.1328
13.03	2.2909	0.1328
13.10	2.2751	0.1329
13.17	2.2585	0.1329
13.24	2.2413	0.1329
13.31	2.2238	0.1331
13.38	2.2065	0.1335
13.45	2.1894	0.1342
13.52	2.1726	0.1351
13.59	2.1558	0.1362
13.66	2.1391	0.1371
13.73	2.1223	0.1377
13.80	2.1053	0.1379
13.87	2.0878	0.1375
13.94	2.0697	0.1366
14.01	2.0510	0.1356
14.08	2.0314	0.1346
14.15	2.0113	0.1339
14.22	1.9907	0.1338
14.29	1.9701	0.1343
14.36	1.9495	0.1355
14.43	1.9292	0.1372
14.50	1.9089	0.1389
14.57	1.8882	0.1405
14.64	1.8666	0.1423
14.71	1.8438	0.1442
14.78	1.8199	0.1464
14.85	1.7955	0.1488
14.92	1.7713	0.1511
14.99	1.7477	0.1530
15.06	1.7247	0.1544
15.13	1.7018	0.1556
15.20	1.6782	0.1568
15.27	1.6533	0.1586
15.34	1.6266	0.1613
15.41	1.5981	0.1647
15.48	1.5682	0.1677
15.55	1.5374	0.1696
15.62	1.5064	0.1704
15.69	1.4756	0.1711
15.76	1.4458	0.1722
15.83	1.4162	0.1746
15.90	1.3858	0.1791
15.97	1.3541	0.1849
16.04	1.3208	0.1910
16.11	1.2856	0.1966
16.18	1.2486	0.2013
16.25	1.2125	0.2052
16.32	1.1818	0.2083
16.39	1.1627	0.2106
16.46	1.1550	0.2119
16.53	1.1525	0.2123
16.60	1.1526	0.2120
16.67	1.1574	0.2112
16.74	1.1714	0.2100
16.81	1.1874	0.2086
16.88	1.2038	0.2070
16.95	1.2260	0.2054
17.02	1.2421	0.2037
17.09	1.2460	0.2023
17.16	1.2456	0.2011
17.23	1.2442	0.2003
17.30	1.2436	0.1998
17.37	1.2444	0.1997
17.44	1.2456	0.2003
17.51	1.2460	0.2013
17.58	1.2447	0.2023
17.65	1.2419	0.2027
17.72	1.2378	0.2022
17.79	1.2326	0.2013
17.86	1.2272	0.2004
17.93	1.2232	0.1999
18.00	1.2213	0.2001
18.07	1.2215	0.2010
18.14	1.2230	0.2021
18.21	1.2248	0.2028
18.28	1.2267	0.2031
18.35	1.2280	0.2031
18.42	1.2287	0.2028
18.49	1.2287	0.2024
18.56	1.2283	0.2020
18.63	1.2276	0.2015
18.70	1.2268	0.2010
18.77	1.2261	0.2005
18.84	1.2256	0.2001
18.91	1.2253	0.1998
18.98	1.2254	0.1998
19.05	1.2257	0.2001
19.12	1.2262	0.2007
19.19	1.2269	0.2016
19.26	1.2277	0.2027
19.33	1.2285	0.2040
19.40	1.2294	0.2050
19.47	1.2302	0.2055
19.54	1.2308	0.2051
19.61	1.2314	0.2038
19.68	1.2317	0.2022
19.75	1.2318	0.2010
19.82	1.2317	0.2007
19.89	1.2314	0.2013
19.96	1.2311	0.2024
20.03	1.2307	0.2033
20.10	1.2304	0.2035
20.17	1.2301	0.2028
20.24	1.2298	0.2016
20.31	1.2296	0.2004
20.38	1.2294	0.1995
20.45	1.2294	0.1989
20.52	1.2294	0.1986
20.59	1.2295	0.1988
20.66	1.2296	0.1996
20.73	1.2298	0.2008
20.80	1.2300	0.2020
20.87	1.2303	0.2027
20.94	1.2306	0.2029
21.01	1.2309	0.2028
21.08	1.2313	0.2026
21.15	1.2317	0.2025
21.22	1.2321	0.2026
21.29	1.2325	0.2027
21.36	1.2330	0.2025
21.43	1.2335	0.2019
21.50	1.2340	0.2013
21.57	1.2345	0.2008
21.64	1.2350	0.2006
21.71	1.2356	0.2009
21.78	1.2361	0.2016
21.85	1.2365	0.2022
21.92	1.2369	0.2025
21.99	1.2372	0.2023
22.06	1.2374	0.2018
22.13	1.2374	0.2015
22.20	1.2371	0.2017
22.27	1.2367	0.2024
22.34	1.2360	0.2033
22.41	1.2350	0.2041
22.48	1.2340	0.2045
22.55	1.2329	0.2044
22.62	1.2318	0.2040
22.69	1.2307	0.2035
22.76	1.2298	0.2030
22.83	1.2290	0.2028
22.90	1.2284	0.2030
22.97	1.2281	0.2038
23.04	1.2279	0.2047
23.11	1.2281	0.2057
23.18	1.2285	0.2062
23.25	1.2291	0.2060
23.32	1.2299	0.2050
23.39	1.2308	0.2036
23.46	1.2318	0.2026
23.53	1.2329	0.2026
23.60	1.2339	0.2037
23.67	1.2350	0.2050
23.74	1.2359	0.2060
23.81	1.2369	0.2061
23.88	1.2377	0.2052
23.95	1.2384	0.2038
24.02	1.2389	0.2026
24.09	1.2392	0.2021
24.16	1.2393	0.2022
24.23	1.2392	0.2028
24.30	1.2389	0.2034
24.37	1.2384	0.2039
24.44	1.2378	0.2042
24.51	1.2369	0.2043
24.58	1.2360	0.2042
24.65	1.2350	0.2041
24.72	1.2338	0.2039
24.79	1.2326	0.2035
24.86	1.2313	0.2031
24.93	1.2301	0.2028
25.00	1.2289	0.2034
