Material: main / VO2 / Oguntoye-30C
Optical constants. I. O. Oguntoye, S. Padmanabha, M. Hinkle, T. Koutsougeras, A. J. Ollanik, M. D. Escarra. Continuously tunable optical modulation using vanadium dioxide Huygens metasurfaces, ACS Appl. Mater. Interfaces 15, 41141–41150 (2023) (Numerical data kindly provided by Isaac Oguntoye)
Comments: ~209 nm-thick VO2 film on SiO2 substrate. 30 °C.
Specs: {"n_is_absolute": true, "wavelength_is_vacuum": true, "temperature": "30 °C", "film_thickness": "209e-9", "substrate": "SiO2"}
wavelength (um)	n	k
0.210	1.62626	1.01139
0.213	1.63550	1.00966
0.216	1.64486	1.00668
0.219	1.65376	1.00281
0.222	1.66181	0.99832
0.225	1.66866	0.99354
0.228	1.67418	0.98888
0.231	1.67839	0.98463
0.234	1.68130	0.98104
0.237	1.68295	0.97837
0.240	1.68347	0.97691
0.243	1.68308	0.97689
0.246	1.68204	0.97845
0.249	1.68065	0.98168
0.252	1.67920	0.98657
0.255	1.67792	0.99304
0.258	1.67698	1.00100
0.261	1.67653	1.01037
0.264	1.67673	1.02107
0.267	1.67767	1.03301
0.270	1.67951	1.04612
0.273	1.68235	1.06030
0.276	1.68633	1.07544
0.279	1.69156	1.09142
0.282	1.69817	1.10812
0.285	1.70628	1.12533
0.288	1.71593	1.14281
0.291	1.72711	1.16035
0.294	1.73974	1.17779
0.297	1.75377	1.19498
0.300	1.76914	1.21180
0.303	1.78578	1.22815
0.306	1.80364	1.24393
0.309	1.82263	1.25905
0.312	1.84267	1.27342
0.315	1.86368	1.28700
0.318	1.88559	1.29974
0.321	1.90834	1.31160
0.324	1.93189	1.32255
0.327	1.95621	1.33255
0.330	1.98132	1.34151
0.333	2.00710	1.34928
0.336	2.03344	1.35577
0.339	2.06020	1.36094
0.342	2.08723	1.36475
0.345	2.11441	1.36721
0.348	2.14159	1.36832
0.351	2.16867	1.36810
0.354	2.19550	1.36659
0.357	2.22196	1.36386
0.360	2.24794	1.36003
0.363	2.27341	1.35520
0.366	2.29834	1.34946
0.369	2.32270	1.34289
0.372	2.34650	1.33555
0.375	2.36972	1.32750
0.378	2.39238	1.31880
0.381	2.41446	1.30948
0.384	2.43598	1.29959
0.387	2.45695	1.28917
0.390	2.47739	1.27824
0.393	2.49731	1.26679
0.396	2.51670	1.25483
0.399	2.53556	1.24237
0.402	2.55386	1.22942
0.405	2.57158	1.21598
0.408	2.58871	1.20206
0.411	2.60523	1.18769
0.414	2.62109	1.17286
0.417	2.63629	1.15761
0.420	2.65079	1.14194
0.423	2.66455	1.12587
0.426	2.67753	1.10943
0.429	2.68965	1.09264
0.432	2.70083	1.07560
0.435	2.71106	1.05842
0.438	2.72035	1.04120
0.441	2.72873	1.02402
0.444	2.73622	1.00695
0.447	2.74287	0.99007
0.450	2.74871	0.97341
0.453	2.75379	0.95704
0.456	2.75815	0.94099
0.459	2.76184	0.92531
0.462	2.76491	0.91002
0.465	2.76741	0.89517
0.468	2.76939	0.88077
0.471	2.77090	0.86685
0.474	2.77201	0.85343
0.477	2.77278	0.84052
0.480	2.77331	0.82812
0.483	2.77365	0.81618
0.486	2.77386	0.80466
0.489	2.77395	0.79352
0.492	2.77394	0.78272
0.495	2.77386	0.77224
0.498	2.77371	0.76204
0.501	2.77350	0.75209
0.504	2.77324	0.74238
0.507	2.77291	0.73289
0.510	2.77254	0.72358
0.513	2.77211	0.71445
0.516	2.77162	0.70548
0.519	2.77108	0.69664
0.522	2.77047	0.68794
0.525	2.76978	0.67935
0.528	2.76902	0.67086
0.531	2.76816	0.66246
0.534	2.76720	0.65414
0.537	2.76613	0.64590
0.540	2.76491	0.63772
0.543	2.76353	0.62961
0.546	2.76197	0.62160
0.549	2.76021	0.61370
0.552	2.75826	0.60593
0.555	2.75612	0.59830
0.558	2.75379	0.59084
0.561	2.75128	0.58355
0.564	2.74858	0.57644
0.567	2.74572	0.56953
0.570	2.74269	0.56283
0.573	2.73951	0.55634
0.576	2.73618	0.55008
0.579	2.73271	0.54404
0.582	2.72912	0.53825
0.585	2.72541	0.53270
0.588	2.72160	0.52740
0.591	2.71769	0.52235
0.594	2.71369	0.51756
0.597	2.70963	0.51304
0.600	2.70551	0.50878
0.603	2.70134	0.50479
0.606	2.69713	0.50108
0.609	2.69291	0.49764
0.612	2.68868	0.49448
0.615	2.68447	0.49160
0.618	2.68028	0.48899
0.621	2.67614	0.48667
0.624	2.67207	0.48462
0.627	2.66810	0.48282
0.630	2.66424	0.48126
0.633	2.66050	0.47992
0.636	2.65688	0.47878
0.639	2.65339	0.47784
0.642	2.65003	0.47708
0.645	2.64681	0.47648
0.648	2.64374	0.47603
0.651	2.64080	0.47573
0.654	2.63800	0.47555
0.657	2.63535	0.47549
0.660	2.63285	0.47555
0.663	2.63048	0.47570
0.666	2.62825	0.47594
0.669	2.62617	0.47626
0.672	2.62422	0.47666
0.675	2.62241	0.47712
0.678	2.62073	0.47764
0.681	2.61918	0.47821
0.684	2.61777	0.47882
0.687	2.61647	0.47947
0.690	2.61530	0.48015
0.693	2.61425	0.48086
0.696	2.61332	0.48158
0.699	2.61250	0.48232
0.702	2.61178	0.48306
0.705	2.61117	0.48381
0.708	2.61067	0.48456
0.711	2.61026	0.48530
0.714	2.60994	0.48604
0.717	2.60971	0.48676
0.720	2.60957	0.48747
0.723	2.60950	0.48816
0.726	2.60952	0.48883
0.729	2.60960	0.48947
0.732	2.60974	0.49009
0.735	2.60994	0.49068
0.738	2.61020	0.49125
0.741	2.61050	0.49179
0.744	2.61085	0.49231
0.747	2.61124	0.49280
0.750	2.61167	0.49328
0.753	2.61213	0.49373
0.756	2.61264	0.49417
0.759	2.61317	0.49458
0.762	2.61374	0.49498
0.765	2.61434	0.49536
0.768	2.61497	0.49573
0.771	2.61563	0.49608
0.774	2.61631	0.49641
0.777	2.61702	0.49673
0.780	2.61775	0.49703
0.783	2.61850	0.49732
0.786	2.61928	0.49760
0.789	2.62008	0.49787
0.792	2.62090	0.49812
0.795	2.62174	0.49836
0.798	2.62260	0.49858
0.801	2.62348	0.49880
0.804	2.62437	0.49901
0.807	2.62528	0.49920
0.810	2.62621	0.49939
0.813	2.62716	0.49956
0.816	2.62812	0.49973
0.819	2.62910	0.49989
0.822	2.63009	0.50003
0.825	2.63109	0.50017
0.828	2.63211	0.50030
0.831	2.63315	0.50043
0.834	2.63420	0.50054
0.837	2.63526	0.50065
0.840	2.63634	0.50075
0.843	2.63742	0.50084
0.846	2.63853	0.50092
0.849	2.63964	0.50100
0.852	2.64077	0.50107
0.855	2.64191	0.50114
0.858	2.64306	0.50120
0.861	2.64422	0.50125
0.864	2.64540	0.50130
0.867	2.64659	0.50134
0.870	2.64779	0.50138
0.873	2.64900	0.50140
0.876	2.65023	0.50143
0.879	2.65147	0.50145
0.882	2.65272	0.50146
0.885	2.65399	0.50147
0.888	2.65526	0.50147
0.891	2.65656	0.50147
0.894	2.65787	0.50146
0.897	2.65919	0.50144
0.900	2.66053	0.50142
0.903	2.66188	0.50138
0.906	2.66325	0.50134
0.909	2.66464	0.50129
0.912	2.66604	0.50122
0.915	2.66745	0.50115
0.918	2.66887	0.50106
0.921	2.67031	0.50097
0.924	2.67177	0.50086
0.927	2.67323	0.50073
0.930	2.67471	0.50060
0.933	2.67620	0.50045
0.936	2.67770	0.50028
0.939	2.67921	0.50010
0.942	2.68073	0.49991
0.945	2.68226	0.49970
0.948	2.68380	0.49948
0.951	2.68535	0.49924
0.954	2.68691	0.49899
0.957	2.68848	0.49872
0.960	2.69005	0.49844
0.963	2.69163	0.49814
0.966	2.69322	0.49782
0.969	2.69481	0.49749
0.972	2.69641	0.49714
0.975	2.69802	0.49678
0.978	2.69963	0.49639
0.981	2.70125	0.49599
0.984	2.70287	0.49558
0.987	2.70449	0.49515
0.990	2.70612	0.49470
0.993	2.70775	0.49423
0.996	2.70938	0.49375
0.999	2.71101	0.49325
1.012	2.71811	0.49090
1.030	2.72793	0.48711
1.048	2.73767	0.48274
1.066	2.74726	0.47779
1.084	2.75663	0.47229
1.102	2.76572	0.46627
1.120	2.77447	0.45974
1.138	2.78281	0.45275
1.156	2.79065	0.44536
1.174	2.79795	0.43767
1.192	2.80472	0.42977
1.210	2.81096	0.42173
1.228	2.81669	0.41359
1.246	2.82193	0.40541
1.264	2.82670	0.39723
1.282	2.83102	0.38907
1.300	2.83492	0.38098
1.318	2.83842	0.37297
1.336	2.84154	0.36506
1.354	2.84430	0.35727
1.372	2.84673	0.34961
1.390	2.84885	0.34209
1.408	2.85068	0.33472
1.426	2.85223	0.32751
1.444	2.85353	0.32046
1.462	2.85458	0.31358
1.480	2.85541	0.30686
1.498	2.85603	0.30031
1.516	2.85645	0.29394
1.534	2.85668	0.28773
1.552	2.85675	0.28170
1.570	2.85664	0.27584
1.588	2.85638	0.27015
1.606	2.85598	0.26463
1.624	2.85543	0.25928
1.642	2.85477	0.25411
1.660	2.85398	0.24912
1.678	2.85309	0.24429
1.696	2.85210	0.23964
1.714	2.85102	0.23515
1.732	2.84986	0.23083
1.750	2.84862	0.22668
1.768	2.84732	0.22268
1.786	2.84596	0.21885
1.804	2.84454	0.21517
1.822	2.84308	0.21165
1.840	2.84157	0.20827
1.858	2.84003	0.20505
1.876	2.83846	0.20196
1.894	2.83686	0.19902
1.912	2.83524	0.19622
1.930	2.83360	0.19355
1.948	2.83195	0.19101
1.966	2.83029	0.18860
1.984	2.82863	0.18631
2.002	2.82696	0.18414
2.020	2.82529	0.18210
2.038	2.82363	0.18017
2.056	2.82197	0.17835
2.074	2.82032	0.17664
2.092	2.81869	0.17504
2.110	2.81707	0.17354
2.128	2.81546	0.17214
2.146	2.81387	0.17085
2.164	2.81231	0.16964
2.182	2.81077	0.16853
2.200	2.80925	0.16751
2.218	2.80775	0.16657
2.236	2.80629	0.16572
2.254	2.80485	0.16495
2.272	2.80345	0.16426
2.290	2.80207	0.16365
2.308	2.80073	0.16312
2.326	2.79943	0.16266
2.344	2.79816	0.16226
2.362	2.79693	0.16194
2.380	2.79574	0.16168
2.398	2.79459	0.16149
2.416	2.79347	0.16136
2.434	2.79240	0.16128
2.452	2.79138	0.16127
2.470	2.79040	0.16131
2.488	2.78947	0.16141
