Material: main / VO2 / Oguntoye-80C
Optical constants. I. O. Oguntoye, S. Padmanabha, M. Hinkle, T. Koutsougeras, A. J. Ollanik, M. D. Escarra. Continuously tunable optical modulation using vanadium dioxide Huygens metasurfaces, ACS Appl. Mater. Interfaces 15, 41141–41150 (2023) (Numerical data kindly provided by Isaac Oguntoye)
Comments: ~209 nm-thick VO2 film on SiO2 substrate. 80 °C.
Specs: {"n_is_absolute": true, "wavelength_is_vacuum": true, "temperature": "80 °C", "film_thickness": "209e-9", "substrate": "SiO2"}
wavelength (um)	n	k
0.210	1.64776	0.99322
0.213	1.65374	0.99232
0.216	1.65942	0.99024
0.219	1.66464	0.98819
0.222	1.66981	0.98685
0.225	1.67565	0.98610
0.228	1.68229	0.98530
0.231	1.68946	0.98404
0.234	1.69677	0.98206
0.237	1.70372	0.97935
0.240	1.71001	0.97617
0.243	1.71552	0.97272
0.246	1.72016	0.96917
0.249	1.72385	0.96566
0.252	1.72651	0.96241
0.255	1.72819	0.95966
0.258	1.72896	0.95761
0.261	1.72896	0.95638
0.264	1.72830	0.95609
0.267	1.72709	0.95685
0.270	1.72549	0.95876
0.273	1.72367	0.96190
0.276	1.72184	0.96630
0.279	1.72019	0.97198
0.282	1.71896	0.97890
0.285	1.71839	0.98694
0.288	1.71863	0.99590
0.291	1.71974	1.00557
0.294	1.72174	1.01580
0.297	1.72462	1.02646
0.300	1.72837	1.03742
0.303	1.73296	1.04859
0.306	1.73832	1.05991
0.309	1.74445	1.07135
0.312	1.75134	1.08285
0.315	1.75899	1.09439
0.318	1.76739	1.10592
0.321	1.77656	1.11739
0.324	1.78651	1.12876
0.327	1.79726	1.13998
0.330	1.80884	1.15095
0.333	1.82124	1.16155
0.336	1.83439	1.17170
0.339	1.84824	1.18131
0.342	1.86270	1.19035
0.345	1.87772	1.19876
0.348	1.89322	1.20652
0.351	1.90916	1.21362
0.354	1.92546	1.22003
0.357	1.94207	1.22576
0.360	1.95895	1.23079
0.363	1.97604	1.23514
0.366	1.99331	1.23880
0.369	2.01070	1.24177
0.372	2.02819	1.24408
0.375	2.04575	1.24573
0.378	2.06333	1.24674
0.381	2.08093	1.24711
0.384	2.09851	1.24685
0.387	2.11608	1.24598
0.390	2.13361	1.24451
0.393	2.15111	1.24241
0.396	2.16854	1.23966
0.399	2.18587	1.23628
0.402	2.20307	1.23225
0.405	2.22010	1.22758
0.408	2.23694	1.22227
0.411	2.25356	1.21634
0.414	2.26993	1.20979
0.417	2.28602	1.20263
0.420	2.30180	1.19488
0.423	2.31726	1.18655
0.426	2.33237	1.17764
0.429	2.34710	1.16819
0.432	2.36143	1.15819
0.435	2.37534	1.14767
0.438	2.38882	1.13664
0.441	2.40185	1.12511
0.444	2.41439	1.11311
0.447	2.42645	1.10063
0.450	2.43799	1.08771
0.453	2.44900	1.07435
0.456	2.45947	1.06056
0.459	2.46936	1.04636
0.462	2.47866	1.03176
0.465	2.48734	1.01677
0.468	2.49538	1.00141
0.471	2.50274	0.98570
0.474	2.50939	0.96964
0.477	2.51527	0.95326
0.480	2.52033	0.93660
0.483	2.52449	0.91975
0.486	2.52777	0.90279
0.489	2.53017	0.88582
0.492	2.53169	0.86888
0.495	2.53238	0.85203
0.498	2.53223	0.83534
0.501	2.53129	0.81885
0.504	2.52958	0.80259
0.507	2.52713	0.78662
0.510	2.52397	0.77096
0.513	2.52014	0.75565
0.516	2.51565	0.74071
0.519	2.51056	0.72619
0.522	2.50489	0.71210
0.525	2.49867	0.69846
0.528	2.49195	0.68531
0.531	2.48476	0.67265
0.534	2.47715	0.66051
0.537	2.46916	0.64890
0.540	2.46085	0.63784
0.543	2.45227	0.62733
0.546	2.44348	0.61733
0.549	2.43451	0.60782
0.552	2.42539	0.59878
0.555	2.41614	0.59018
0.558	2.40677	0.58201
0.561	2.39730	0.57424
0.564	2.38774	0.56687
0.567	2.37811	0.55987
0.570	2.36841	0.55323
0.573	2.35866	0.54694
0.576	2.34885	0.54098
0.579	2.33901	0.53535
0.582	2.32912	0.53002
0.585	2.31921	0.52499
0.588	2.30926	0.52025
0.591	2.29930	0.51579
0.594	2.28931	0.51159
0.597	2.27930	0.50766
0.600	2.26928	0.50398
0.603	2.25924	0.50054
0.606	2.24919	0.49733
0.609	2.23913	0.49435
0.612	2.22905	0.49160
0.615	2.21896	0.48905
0.618	2.20885	0.48672
0.621	2.19873	0.48459
0.624	2.18858	0.48266
0.627	2.17841	0.48093
0.630	2.16820	0.47940
0.633	2.15797	0.47807
0.636	2.14772	0.47694
0.639	2.13744	0.47602
0.642	2.12714	0.47530
0.645	2.11681	0.47479
0.648	2.10647	0.47447
0.651	2.09611	0.47437
0.654	2.08574	0.47446
0.657	2.07535	0.47476
0.660	2.06496	0.47527
0.663	2.05455	0.47598
0.666	2.04415	0.47689
0.669	2.03374	0.47800
0.672	2.02334	0.47932
0.675	2.01295	0.48085
0.678	2.00256	0.48258
0.681	1.99219	0.48451
0.684	1.98183	0.48664
0.687	1.97150	0.48898
0.690	1.96119	0.49152
0.693	1.95090	0.49426
0.696	1.94065	0.49720
0.699	1.93044	0.50034
0.702	1.92026	0.50368
0.705	1.91013	0.50723
0.708	1.90005	0.51097
0.711	1.89003	0.51491
0.714	1.88006	0.51904
0.717	1.87016	0.52337
0.720	1.86032	0.52789
0.723	1.85056	0.53261
0.726	1.84089	0.53751
0.729	1.83130	0.54261
0.732	1.82181	0.54789
0.735	1.81242	0.55335
0.738	1.80314	0.55898
0.741	1.79397	0.56477
0.744	1.78492	0.57073
0.747	1.77599	0.57683
0.750	1.76718	0.58308
0.753	1.75850	0.58947
0.756	1.74995	0.59600
0.759	1.74152	0.60265
0.762	1.73322	0.60942
0.765	1.72505	0.61630
0.768	1.71701	0.62330
0.771	1.70910	0.63039
0.774	1.70133	0.63759
0.777	1.69368	0.64488
0.780	1.68616	0.65226
0.783	1.67878	0.65972
0.786	1.67152	0.66726
0.789	1.66439	0.67487
0.792	1.65739	0.68255
0.795	1.65052	0.69030
0.798	1.64377	0.69810
0.801	1.63714	0.70596
0.804	1.63064	0.71387
0.807	1.62426	0.72183
0.810	1.61799	0.72983
0.813	1.61185	0.73787
0.816	1.60582	0.74594
0.819	1.59990	0.75405
0.822	1.59409	0.76218
0.825	1.58839	0.77034
0.828	1.58280	0.77853
0.831	1.57731	0.78673
0.834	1.57192	0.79495
0.837	1.56663	0.80318
0.840	1.56143	0.81143
0.843	1.55633	0.81968
0.846	1.55131	0.82795
0.849	1.54639	0.83621
0.852	1.54155	0.84449
0.855	1.53678	0.85276
0.858	1.53210	0.86103
0.861	1.52749	0.86930
0.864	1.52296	0.87757
0.867	1.51849	0.88584
0.870	1.51408	0.89410
0.873	1.50974	0.90236
0.876	1.50546	0.91061
0.879	1.50123	0.91885
0.882	1.49705	0.92709
0.885	1.49292	0.93533
0.888	1.48883	0.94356
0.891	1.48478	0.95178
0.894	1.48076	0.96001
0.897	1.47677	0.96825
0.900	1.47282	0.97649
0.903	1.46889	0.98475
0.906	1.46500	0.99302
0.909	1.46114	1.00131
0.912	1.45730	1.00962
0.915	1.45350	1.01795
0.918	1.44974	1.02630
0.921	1.44600	1.03468
0.924	1.44230	1.04308
0.927	1.43863	1.05151
0.930	1.43500	1.05997
0.933	1.43141	1.06845
0.936	1.42785	1.07697
0.939	1.42433	1.08552
0.942	1.42085	1.09409
0.945	1.41741	1.10270
0.948	1.41401	1.11134
0.951	1.41066	1.12001
0.954	1.40735	1.12872
0.957	1.40408	1.13745
0.960	1.40086	1.14622
0.963	1.39769	1.15502
0.966	1.39457	1.16385
0.969	1.39149	1.17271
0.972	1.38847	1.18161
0.975	1.38550	1.19053
0.978	1.38257	1.19948
0.981	1.37971	1.20846
0.984	1.37689	1.21747
0.987	1.37413	1.22651
0.990	1.37143	1.23557
0.993	1.36878	1.24466
0.996	1.36619	1.25378
0.999	1.36365	1.26291
1.012	1.35335	1.30278
1.030	1.34094	1.35854
1.048	1.33075	1.41478
1.066	1.32278	1.47125
1.084	1.31698	1.52773
1.102	1.31328	1.58404
1.120	1.31158	1.63998
1.138	1.31175	1.69543
1.156	1.31367	1.75024
1.174	1.31721	1.80433
1.192	1.32222	1.85761
1.210	1.32857	1.91004
1.228	1.33614	1.96156
1.246	1.34480	2.01217
1.264	1.35443	2.06184
1.282	1.36494	2.11057
1.300	1.37622	2.15837
1.318	1.38818	2.20525
1.336	1.40073	2.25123
1.354	1.41380	2.29633
1.372	1.42732	2.34057
1.390	1.44122	2.38398
1.408	1.45544	2.42659
1.426	1.46991	2.46843
1.444	1.48460	2.50955
1.462	1.49945	2.54996
1.480	1.51441	2.58971
1.498	1.52944	2.62885
1.516	1.54449	2.66741
1.534	1.55953	2.70543
1.552	1.57451	2.74299
1.570	1.58938	2.78016
1.588	1.60414	2.81708
1.606	1.61886	2.85382
1.624	1.63360	2.89043
1.642	1.64841	2.92693
1.660	1.66336	2.96335
1.678	1.67848	2.99966
1.696	1.69382	3.03588
1.714	1.70940	3.07199
1.732	1.72525	3.10796
1.750	1.74139	3.14378
1.768	1.75783	3.17944
1.786	1.77460	3.21491
1.804	1.79169	3.25018
1.822	1.80911	3.28521
1.840	1.82686	3.32000
1.858	1.84495	3.35453
1.876	1.86336	3.38878
1.894	1.88209	3.42273
1.912	1.90114	3.45637
1.930	1.92050	3.48968
1.948	1.94017	3.52265
1.966	1.96012	3.55528
1.984	1.98036	3.58754
2.002	2.00087	3.61944
2.020	2.02165	3.65096
2.038	2.04268	3.68209
2.056	2.06395	3.71283
2.074	2.08546	3.74317
2.092	2.10719	3.77311
2.110	2.12913	3.80265
2.128	2.15127	3.83177
2.146	2.17360	3.86048
2.164	2.19612	3.88877
2.182	2.21881	3.91665
2.200	2.24167	3.94410
2.218	2.26469	3.97113
2.236	2.28786	3.99774
2.254	2.31116	4.02392
2.272	2.33461	4.04968
2.290	2.35818	4.07500
2.308	2.38188	4.09990
2.326	2.40570	4.12438
2.344	2.42963	4.14841
2.362	2.45367	4.17202
2.380	2.47781	4.19519
2.398	2.50206	4.21793
2.416	2.52641	4.24022
2.434	2.55086	4.26207
2.452	2.57542	4.28347
2.470	2.60008	4.30441
2.488	2.62485	4.32487
