Material: main / VO2 / Oguntoye-55C
Optical constants. I. O. Oguntoye, S. Padmanabha, M. Hinkle, T. Koutsougeras, A. J. Ollanik, M. D. Escarra. Continuously tunable optical modulation using vanadium dioxide Huygens metasurfaces, ACS Appl. Mater. Interfaces 15, 41141–41150 (2023) (Numerical data kindly provided by Isaac Oguntoye)
Comments: ~209 nm-thick VO2 film on SiO2 substrate. 55 °C.
Specs: {"n_is_absolute": true, "wavelength_is_vacuum": true, "temperature": "55 °C", "film_thickness": "209e-9", "substrate": "SiO2"}
wavelength (um)	n	k
0.210	1.80602	0.88171
0.213	1.78807	0.86825
0.216	1.77959	0.86442
0.219	1.78001	0.86269
0.222	1.78578	0.85800
0.225	1.79143	0.84967
0.228	1.79478	0.84028
0.231	1.79573	0.83166
0.234	1.79493	0.82502
0.237	1.79362	0.82075
0.240	1.79252	0.81826
0.243	1.79173	0.81705
0.246	1.79119	0.81676
0.249	1.79064	0.81718
0.252	1.78973	0.81846
0.255	1.78847	0.82095
0.258	1.78705	0.82489
0.261	1.78576	0.83044
0.264	1.78492	0.83765
0.267	1.78498	0.84643
0.270	1.78621	0.85645
0.273	1.78869	0.86745
0.276	1.79247	0.87917
0.279	1.79754	0.89143
0.282	1.80389	0.90405
0.285	1.81144	0.91693
0.288	1.82018	0.93000
0.291	1.83012	0.94321
0.294	1.84130	0.95648
0.297	1.85377	0.96974
0.300	1.86759	0.98291
0.303	1.88288	0.99586
0.306	1.89981	1.00833
0.309	1.91831	1.01994
0.312	1.93820	1.03039
0.315	1.95926	1.03950
0.318	1.98123	1.04711
0.321	2.00387	1.05314
0.324	2.02693	1.05756
0.327	2.05012	1.06036
0.330	2.07314	1.06168
0.333	2.09585	1.06172
0.336	2.11820	1.06067
0.339	2.14015	1.05867
0.342	2.16170	1.05582
0.345	2.18289	1.05223
0.348	2.20373	1.04798
0.351	2.22428	1.04313
0.354	2.24462	1.03771
0.357	2.26485	1.03172
0.360	2.28505	1.02504
0.363	2.30517	1.01754
0.366	2.32516	1.00916
0.369	2.34492	0.99984
0.372	2.36437	0.98953
0.375	2.38341	0.97823
0.378	2.40193	0.96590
0.381	2.41982	0.95256
0.384	2.43696	0.93820
0.387	2.45318	0.92286
0.390	2.46828	0.90660
0.393	2.48209	0.88965
0.396	2.49457	0.87224
0.399	2.50574	0.85456
0.402	2.51563	0.83676
0.405	2.52430	0.81897
0.408	2.53182	0.80133
0.411	2.53826	0.78392
0.414	2.54369	0.76683
0.417	2.54820	0.75016
0.420	2.55188	0.73396
0.423	2.55483	0.71829
0.426	2.55717	0.70321
0.429	2.55905	0.68874
0.432	2.56063	0.67484
0.435	2.56202	0.66141
0.438	2.56324	0.64837
0.441	2.56435	0.63562
0.444	2.56534	0.62312
0.447	2.56622	0.61080
0.450	2.56699	0.59861
0.453	2.56763	0.58651
0.456	2.56814	0.57444
0.459	2.56848	0.56238
0.462	2.56863	0.55029
0.465	2.56856	0.53813
0.468	2.56823	0.52589
0.471	2.56760	0.51354
0.474	2.56660	0.50106
0.477	2.56517	0.48844
0.480	2.56318	0.47568
0.483	2.56056	0.46288
0.486	2.55726	0.45014
0.489	2.55328	0.43755
0.492	2.54862	0.42517
0.495	2.54329	0.41309
0.498	2.53731	0.40136
0.501	2.53070	0.39004
0.504	2.52350	0.37920
0.507	2.51574	0.36887
0.510	2.50746	0.35912
0.513	2.49868	0.34998
0.516	2.48947	0.34150
0.519	2.47987	0.33371
0.522	2.46992	0.32667
0.525	2.45969	0.32039
0.528	2.44923	0.31491
0.531	2.43862	0.31027
0.534	2.42791	0.30649
0.537	2.41721	0.30359
0.540	2.40661	0.30161
0.543	2.39626	0.30051
0.546	2.38627	0.30023
0.549	2.37671	0.30067
0.552	2.36762	0.30175
0.555	2.35904	0.30341
0.558	2.35100	0.30556
0.561	2.34351	0.30815
0.564	2.33659	0.31110
0.567	2.33024	0.31436
0.570	2.32446	0.31786
0.573	2.31925	0.32155
0.576	2.31460	0.32538
0.579	2.31049	0.32930
0.582	2.30692	0.33326
0.585	2.30386	0.33721
0.588	2.30129	0.34111
0.591	2.29920	0.34493
0.594	2.29756	0.34864
0.597	2.29633	0.35218
0.600	2.29550	0.35555
0.603	2.29502	0.35870
0.606	2.29488	0.36161
0.609	2.29504	0.36427
0.612	2.29546	0.36664
0.615	2.29610	0.36872
0.618	2.29692	0.37048
0.621	2.29789	0.37191
0.624	2.29893	0.37302
0.627	2.30000	0.37382
0.630	2.30108	0.37435
0.633	2.30213	0.37462
0.636	2.30315	0.37466
0.639	2.30411	0.37448
0.642	2.30500	0.37411
0.645	2.30581	0.37356
0.648	2.30654	0.37284
0.651	2.30718	0.37198
0.654	2.30772	0.37098
0.657	2.30815	0.36986
0.660	2.30848	0.36863
0.663	2.30870	0.36730
0.666	2.30881	0.36589
0.669	2.30881	0.36441
0.672	2.30869	0.36286
0.675	2.30846	0.36125
0.678	2.30812	0.35960
0.681	2.30766	0.35791
0.684	2.30709	0.35618
0.687	2.30641	0.35444
0.690	2.30562	0.35268
0.693	2.30472	0.35090
0.696	2.30372	0.34913
0.699	2.30261	0.34736
0.702	2.30139	0.34560
0.705	2.30008	0.34385
0.708	2.29867	0.34212
0.711	2.29716	0.34041
0.714	2.29556	0.33873
0.717	2.29387	0.33708
0.720	2.29209	0.33547
0.723	2.29023	0.33390
0.726	2.28829	0.33238
0.729	2.28626	0.33090
0.732	2.28417	0.32947
0.735	2.28200	0.32809
0.738	2.27977	0.32676
0.741	2.27748	0.32549
0.744	2.27512	0.32428
0.747	2.27271	0.32312
0.750	2.27024	0.32201
0.753	2.26772	0.32096
0.756	2.26514	0.31997
0.759	2.26252	0.31904
0.762	2.25985	0.31817
0.765	2.25714	0.31736
0.768	2.25438	0.31661
0.771	2.25158	0.31592
0.774	2.24874	0.31530
0.777	2.24586	0.31473
0.780	2.24294	0.31423
0.783	2.23999	0.31379
0.786	2.23701	0.31342
0.789	2.23399	0.31311
0.792	2.23095	0.31286
0.795	2.22788	0.31268
0.798	2.22478	0.31256
0.801	2.22165	0.31251
0.804	2.21850	0.31252
0.807	2.21533	0.31260
0.810	2.21213	0.31274
0.813	2.20892	0.31295
0.816	2.20569	0.31322
0.819	2.20244	0.31356
0.822	2.19917	0.31397
0.825	2.19589	0.31444
0.828	2.19259	0.31498
0.831	2.18929	0.31558
0.834	2.18597	0.31625
0.837	2.18264	0.31699
0.840	2.17930	0.31779
0.843	2.17596	0.31865
0.846	2.17261	0.31958
0.849	2.16925	0.32058
0.852	2.16589	0.32164
0.855	2.16253	0.32277
0.858	2.15916	0.32396
0.861	2.15579	0.32522
0.864	2.15243	0.32654
0.867	2.14906	0.32793
0.870	2.14569	0.32938
0.873	2.14233	0.33089
0.876	2.13897	0.33247
0.879	2.13561	0.33411
0.882	2.13226	0.33582
0.885	2.12891	0.33758
0.888	2.12557	0.33941
0.891	2.12224	0.34131
0.894	2.11891	0.34326
0.897	2.11559	0.34528
0.900	2.11227	0.34737
0.903	2.10897	0.34952
0.906	2.10567	0.35173
0.909	2.10239	0.35401
0.912	2.09912	0.35636
0.915	2.09586	0.35877
0.918	2.09262	0.36124
0.921	2.08939	0.36378
0.924	2.08618	0.36639
0.927	2.08299	0.36906
0.930	2.07982	0.37180
0.933	2.07667	0.37460
0.936	2.07354	0.37747
0.939	2.07043	0.38040
0.942	2.06734	0.38340
0.945	2.06429	0.38646
0.948	2.06126	0.38959
0.951	2.05825	0.39278
0.954	2.05528	0.39604
0.957	2.05234	0.39936
0.960	2.04942	0.40274
0.963	2.04655	0.40618
0.966	2.04370	0.40969
0.969	2.04089	0.41326
0.972	2.03812	0.41690
0.975	2.03539	0.42059
0.978	2.03269	0.42434
0.981	2.03004	0.42816
0.984	2.02742	0.43203
0.987	2.02485	0.43597
0.990	2.02233	0.43996
0.993	2.01984	0.44400
0.996	2.01741	0.44811
0.999	2.01502	0.45227
1.012	2.00525	0.47093
1.030	1.99338	0.49836
1.048	1.98364	0.52746
1.066	1.97624	0.55799
1.084	1.97133	0.58971
1.102	1.96908	0.62236
1.120	1.96962	0.65566
1.138	1.97312	0.68929
1.156	1.97975	0.72278
1.174	1.98937	0.75555
1.192	2.00173	0.78718
1.210	2.01652	0.81735
1.228	2.03342	0.84587
1.246	2.05209	0.87259
1.264	2.07225	0.89744
1.282	2.09362	0.92038
1.300	2.11595	0.94142
1.318	2.13903	0.96060
1.336	2.16266	0.97797
1.354	2.18667	0.99359
1.372	2.21091	1.00752
1.390	2.23527	1.01985
1.408	2.25963	1.03066
1.426	2.28389	1.04003
1.444	2.30799	1.04803
1.462	2.33186	1.05473
1.480	2.35543	1.06023
1.498	2.37866	1.06457
1.516	2.40152	1.06784
1.534	2.42397	1.07010
1.552	2.44597	1.07140
1.570	2.46752	1.07181
1.588	2.48860	1.07138
1.606	2.50918	1.07016
1.624	2.52926	1.06820
1.642	2.54883	1.06555
1.660	2.56789	1.06224
1.678	2.58642	1.05832
1.696	2.60443	1.05382
1.714	2.62192	1.04878
1.732	2.63889	1.04323
1.750	2.65533	1.03721
1.768	2.67126	1.03073
1.786	2.68667	1.02384
1.804	2.70156	1.01656
1.822	2.71595	1.00890
1.840	2.72984	1.00090
1.858	2.74322	0.99257
1.876	2.75612	0.98394
1.894	2.76852	0.97501
1.912	2.78045	0.96582
1.930	2.79190	0.95638
1.948	2.80288	0.94669
1.966	2.81340	0.93679
1.984	2.82346	0.92667
2.002	2.83306	0.91636
2.020	2.84223	0.90586
2.038	2.85095	0.89520
2.056	2.85924	0.88436
2.074	2.86710	0.87338
2.092	2.87454	0.86225
2.110	2.88156	0.85099
2.128	2.88817	0.83960
2.146	2.89438	0.82809
2.164	2.90018	0.81647
2.182	2.90558	0.80475
2.200	2.91060	0.79293
2.218	2.91522	0.78102
2.236	2.91946	0.76902
2.254	2.92332	0.75694
2.272	2.92681	0.74479
2.290	2.92992	0.73256
2.308	2.93267	0.72027
2.326	2.93505	0.70791
2.344	2.93706	0.69549
2.362	2.93871	0.68302
2.380	2.94000	0.67049
2.398	2.94094	0.65792
2.416	2.94151	0.64530
2.434	2.94173	0.63263
2.452	2.94160	0.61992
2.470	2.94110	0.60718
2.488	2.94024	0.59440
