Material: main / VO2 / Oguntoye-20C
Optical constants. I. O. Oguntoye, S. Padmanabha, M. Hinkle, T. Koutsougeras, A. J. Ollanik, M. D. Escarra. Continuously tunable optical modulation using vanadium dioxide Huygens metasurfaces, ACS Appl. Mater. Interfaces 15, 41141–41150 (2023) (Numerical data kindly provided by Isaac Oguntoye)
Comments: ~209 nm-thick VO2 film on SiO2 substrate. 20 °C.
Specs: {"n_is_absolute": true, "wavelength_is_vacuum": true, "temperature": "20 °C", "film_thickness": "209e-9", "substrate": "SiO2"}
wavelength (um)	n	k
0.210	1.62092	1.00817
0.213	1.63000	1.00702
0.216	1.63941	1.00452
0.219	1.64851	1.00096
0.222	1.65678	0.99654
0.225	1.66374	0.99167
0.228	1.66924	0.98684
0.231	1.67330	0.98243
0.234	1.67597	0.97872
0.237	1.67732	0.97599
0.240	1.67752	0.97453
0.243	1.67679	0.97457
0.246	1.67542	0.97624
0.249	1.67371	0.97963
0.252	1.67195	0.98472
0.255	1.67039	0.99142
0.258	1.66919	0.99965
0.261	1.66852	1.00931
0.264	1.66852	1.02032
0.267	1.66931	1.03258
0.270	1.67102	1.04602
0.273	1.67376	1.06053
0.276	1.67768	1.07602
0.279	1.68288	1.09234
0.282	1.68950	1.10937
0.285	1.69766	1.12691
0.288	1.70739	1.14468
0.291	1.71867	1.16248
0.294	1.73142	1.18013
0.297	1.74557	1.19750
0.300	1.76105	1.21446
0.303	1.77776	1.23091
0.306	1.79564	1.24678
0.309	1.81461	1.26200
0.312	1.83460	1.27650
0.315	1.85554	1.29025
0.318	1.87737	1.30321
0.321	1.90006	1.31534
0.324	1.92357	1.32662
0.327	1.94791	1.33700
0.330	1.97311	1.34635
0.333	1.99908	1.35450
0.336	2.02566	1.36134
0.339	2.05272	1.36680
0.342	2.08010	1.37085
0.345	2.10764	1.37348
0.348	2.13521	1.37468
0.351	2.16265	1.37449
0.354	2.18982	1.37293
0.357	2.21657	1.37010
0.360	2.24277	1.36612
0.363	2.26839	1.36113
0.366	2.29341	1.35524
0.369	2.31782	1.34853
0.372	2.34162	1.34107
0.375	2.36480	1.33294
0.378	2.38739	1.32419
0.381	2.40938	1.31486
0.384	2.43081	1.30502
0.387	2.45169	1.29468
0.390	2.47206	1.28387
0.393	2.49194	1.27258
0.396	2.51132	1.26081
0.399	2.53020	1.24854
0.402	2.54854	1.23577
0.405	2.56635	1.22253
0.408	2.58358	1.20880
0.411	2.60022	1.19460
0.414	2.61624	1.17993
0.417	2.63161	1.16483
0.420	2.64628	1.14928
0.423	2.66023	1.13333
0.426	2.67340	1.11697
0.429	2.68571	1.10025
0.432	2.69709	1.08325
0.435	2.70750	1.06610
0.438	2.71697	1.04890
0.441	2.72551	1.03173
0.444	2.73316	1.01467
0.447	2.73996	0.99778
0.450	2.74594	0.98112
0.453	2.75115	0.96473
0.456	2.75564	0.94867
0.459	2.75945	0.93298
0.462	2.76263	0.91768
0.465	2.76524	0.90282
0.468	2.76732	0.88841
0.471	2.76893	0.87449
0.474	2.77013	0.86106
0.477	2.77100	0.84815
0.480	2.77162	0.83575
0.483	2.77206	0.82382
0.486	2.77236	0.81230
0.489	2.77254	0.80117
0.492	2.77264	0.79037
0.495	2.77266	0.77990
0.498	2.77261	0.76970
0.501	2.77250	0.75976
0.504	2.77234	0.75006
0.507	2.77212	0.74057
0.510	2.77185	0.73127
0.513	2.77153	0.72214
0.516	2.77115	0.71316
0.519	2.77072	0.70433
0.522	2.77021	0.69562
0.525	2.76964	0.68703
0.528	2.76899	0.67853
0.531	2.76824	0.67012
0.534	2.76740	0.66180
0.537	2.76644	0.65354
0.540	2.76534	0.64535
0.543	2.76407	0.63722
0.546	2.76263	0.62919
0.549	2.76099	0.62127
0.552	2.75915	0.61347
0.555	2.75713	0.60582
0.558	2.75492	0.59832
0.561	2.75252	0.59100
0.564	2.74994	0.58386
0.567	2.74720	0.57691
0.570	2.74429	0.57017
0.573	2.74122	0.56364
0.576	2.73801	0.55733
0.579	2.73466	0.55124
0.582	2.73118	0.54539
0.585	2.72759	0.53978
0.588	2.72389	0.53442
0.591	2.72009	0.52931
0.594	2.71621	0.52445
0.597	2.71226	0.51986
0.600	2.70825	0.51552
0.603	2.70419	0.51146
0.606	2.70009	0.50766
0.609	2.69597	0.50414
0.612	2.69185	0.50088
0.615	2.68773	0.49791
0.618	2.68364	0.49520
0.621	2.67959	0.49278
0.624	2.67561	0.49062
0.627	2.67173	0.48871
0.630	2.66794	0.48703
0.633	2.66427	0.48558
0.636	2.66072	0.48433
0.639	2.65730	0.48327
0.642	2.65400	0.48238
0.645	2.65084	0.48166
0.648	2.64781	0.48109
0.651	2.64491	0.48067
0.654	2.64216	0.48037
0.657	2.63954	0.48019
0.660	2.63706	0.48012
0.663	2.63472	0.48015
0.666	2.63251	0.48028
0.669	2.63044	0.48048
0.672	2.62850	0.48076
0.675	2.62670	0.48111
0.678	2.62502	0.48151
0.681	2.62347	0.48197
0.684	2.62205	0.48247
0.687	2.62075	0.48302
0.690	2.61957	0.48359
0.693	2.61850	0.48420
0.696	2.61754	0.48482
0.699	2.61670	0.48546
0.702	2.61596	0.48611
0.705	2.61533	0.48677
0.708	2.61479	0.48744
0.711	2.61435	0.48810
0.714	2.61400	0.48876
0.717	2.61373	0.48940
0.720	2.61355	0.49004
0.723	2.61345	0.49066
0.726	2.61342	0.49126
0.729	2.61347	0.49184
0.732	2.61357	0.49240
0.735	2.61373	0.49294
0.738	2.61395	0.49345
0.741	2.61421	0.49394
0.744	2.61452	0.49442
0.747	2.61487	0.49487
0.750	2.61527	0.49530
0.753	2.61570	0.49572
0.756	2.61617	0.49612
0.759	2.61667	0.49650
0.762	2.61720	0.49687
0.765	2.61777	0.49722
0.768	2.61837	0.49755
0.771	2.61900	0.49788
0.774	2.61965	0.49818
0.777	2.62033	0.49848
0.780	2.62104	0.49876
0.783	2.62177	0.49903
0.786	2.62252	0.49928
0.789	2.62330	0.49953
0.792	2.62409	0.49976
0.795	2.62491	0.49998
0.798	2.62575	0.50019
0.801	2.62661	0.50039
0.804	2.62749	0.50058
0.807	2.62838	0.50076
0.810	2.62930	0.50092
0.813	2.63023	0.50108
0.816	2.63118	0.50123
0.819	2.63214	0.50138
0.822	2.63312	0.50151
0.825	2.63412	0.50163
0.828	2.63513	0.50175
0.831	2.63615	0.50186
0.834	2.63719	0.50196
0.837	2.63825	0.50205
0.840	2.63932	0.50213
0.843	2.64040	0.50221
0.846	2.64149	0.50228
0.849	2.64260	0.50234
0.852	2.64372	0.50240
0.855	2.64486	0.50245
0.858	2.64601	0.50249
0.861	2.64717	0.50253
0.864	2.64834	0.50256
0.867	2.64953	0.50258
0.870	2.65073	0.50260
0.873	2.65194	0.50261
0.876	2.65316	0.50261
0.879	2.65440	0.50261
0.882	2.65565	0.50261
0.885	2.65691	0.50260
0.888	2.65819	0.50258
0.891	2.65948	0.50255
0.894	2.66079	0.50252
0.897	2.66211	0.50249
0.900	2.66345	0.50244
0.903	2.66480	0.50238
0.906	2.66617	0.50232
0.909	2.66755	0.50224
0.912	2.66894	0.50216
0.915	2.67035	0.50206
0.918	2.67177	0.50195
0.921	2.67321	0.50183
0.924	2.67466	0.50170
0.927	2.67612	0.50155
0.930	2.67759	0.50139
0.933	2.67907	0.50122
0.936	2.68056	0.50103
0.939	2.68207	0.50083
0.942	2.68358	0.50062
0.945	2.68511	0.50039
0.948	2.68664	0.50014
0.951	2.68818	0.49988
0.954	2.68973	0.49961
0.957	2.69129	0.49932
0.960	2.69286	0.49901
0.963	2.69443	0.49869
0.966	2.69601	0.49835
0.969	2.69759	0.49800
0.972	2.69918	0.49763
0.975	2.70078	0.49724
0.978	2.70238	0.49684
0.981	2.70398	0.49642
0.984	2.70559	0.49598
0.987	2.70720	0.49553
0.990	2.70882	0.49506
0.993	2.71044	0.49458
0.996	2.71206	0.49408
0.999	2.71368	0.49356
1.012	2.72072	0.49113
1.030	2.73046	0.48725
1.048	2.74012	0.48280
1.066	2.74962	0.47778
1.084	2.75892	0.47223
1.102	2.76793	0.46616
1.120	2.77661	0.45960
1.138	2.78488	0.45260
1.156	2.79266	0.44520
1.174	2.79992	0.43752
1.192	2.80667	0.42962
1.210	2.81289	0.42158
1.228	2.81862	0.41345
1.246	2.82387	0.40527
1.264	2.82865	0.39708
1.282	2.83300	0.38892
1.300	2.83693	0.38081
1.318	2.84046	0.37278
1.336	2.84362	0.36484
1.354	2.84644	0.35701
1.372	2.84892	0.34930
1.390	2.85109	0.34173
1.408	2.85296	0.33429
1.426	2.85456	0.32701
1.444	2.85591	0.31988
1.462	2.85701	0.31290
1.480	2.85788	0.30609
1.498	2.85854	0.29944
1.516	2.85899	0.29295
1.534	2.85925	0.28663
1.552	2.85934	0.28046
1.570	2.85925	0.27447
1.588	2.85899	0.26864
1.606	2.85858	0.26297
1.624	2.85802	0.25748
1.642	2.85732	0.25216
1.660	2.85650	0.24702
1.678	2.85556	0.24204
1.696	2.85452	0.23724
1.714	2.85337	0.23261
1.732	2.85214	0.22815
1.750	2.85082	0.22386
1.768	2.84943	0.21974
1.786	2.84797	0.21577
1.804	2.84645	0.21197
1.822	2.84487	0.20833
1.840	2.84325	0.20484
1.858	2.84159	0.20151
1.876	2.83989	0.19833
1.894	2.83816	0.19529
1.912	2.83640	0.19240
1.930	2.83463	0.18964
1.948	2.83283	0.18703
1.966	2.83103	0.18455
1.984	2.82921	0.18220
2.002	2.82740	0.17997
2.020	2.82558	0.17788
2.038	2.82376	0.17590
2.056	2.82195	0.17405
2.074	2.82014	0.17231
2.092	2.81835	0.17068
2.110	2.81657	0.16916
2.128	2.81481	0.16775
2.146	2.81307	0.16644
2.164	2.81135	0.16524
2.182	2.80965	0.16413
2.200	2.80797	0.16312
2.218	2.80632	0.16220
2.236	2.80471	0.16137
2.254	2.80312	0.16063
2.272	2.80156	0.15997
2.290	2.80004	0.15940
2.308	2.79856	0.15891
2.326	2.79711	0.15849
2.344	2.79570	0.15815
2.362	2.79432	0.15788
2.380	2.79299	0.15769
2.398	2.79171	0.15756
2.416	2.79046	0.15750
2.434	2.78927	0.15750
2.452	2.78812	0.15757
2.470	2.78701	0.15770
2.488	2.78596	0.15788
