Material: main / VO2 / Oguntoye-70C
Optical constants. I. O. Oguntoye, S. Padmanabha, M. Hinkle, T. Koutsougeras, A. J. Ollanik, M. D. Escarra. Continuously tunable optical modulation using vanadium dioxide Huygens metasurfaces, ACS Appl. Mater. Interfaces 15, 41141–41150 (2023) (Numerical data kindly provided by Isaac Oguntoye)
Comments: ~209 nm-thick VO2 film on SiO2 substrate. 70 °C.
Specs: {"n_is_absolute": true, "wavelength_is_vacuum": true, "temperature": "70 °C", "film_thickness": "209e-9", "substrate": "SiO2"}
wavelength (um)	n	k
0.210	1.65157	0.98856
0.213	1.65706	0.98764
0.216	1.66247	0.98568
0.219	1.66759	0.98373
0.222	1.67275	0.98238
0.225	1.67858	0.98153
0.228	1.68515	0.98059
0.231	1.69219	0.97918
0.234	1.69932	0.97708
0.237	1.70608	0.97429
0.240	1.71217	0.97104
0.243	1.71746	0.96755
0.246	1.72188	0.96397
0.249	1.72534	0.96045
0.252	1.72776	0.95722
0.255	1.72918	0.95452
0.258	1.72970	0.95254
0.261	1.72944	0.95142
0.264	1.72852	0.95128
0.267	1.72707	0.95223
0.270	1.72524	0.95436
0.273	1.72322	0.95775
0.276	1.72121	0.96243
0.279	1.71942	0.96841
0.282	1.71807	0.97566
0.285	1.71743	0.98405
0.288	1.71764	0.99336
0.291	1.71876	1.00339
0.294	1.72080	1.01397
0.297	1.72376	1.02498
0.300	1.72763	1.03629
0.303	1.73236	1.04779
0.306	1.73790	1.05943
0.309	1.74424	1.07116
0.312	1.75136	1.08295
0.315	1.75927	1.09475
0.318	1.76795	1.10651
0.321	1.77742	1.11820
0.324	1.78768	1.12976
0.327	1.79877	1.14115
0.330	1.81070	1.15227
0.333	1.82347	1.16298
0.336	1.83700	1.17321
0.339	1.85123	1.18287
0.342	1.86608	1.19193
0.345	1.88149	1.20033
0.348	1.89738	1.20805
0.351	1.91370	1.21507
0.354	1.93038	1.22138
0.357	1.94736	1.22698
0.360	1.96460	1.23185
0.363	1.98205	1.23601
0.366	1.99964	1.23946
0.369	2.01736	1.24220
0.372	2.03515	1.24424
0.375	2.05298	1.24561
0.378	2.07082	1.24631
0.381	2.08865	1.24635
0.384	2.10644	1.24575
0.387	2.12418	1.24453
0.390	2.14186	1.24268
0.393	2.15947	1.24019
0.396	2.17697	1.23707
0.399	2.19434	1.23331
0.402	2.21155	1.22890
0.405	2.22857	1.22387
0.408	2.24537	1.21821
0.411	2.26192	1.21194
0.414	2.27820	1.20506
0.417	2.29418	1.19759
0.420	2.30984	1.18954
0.423	2.32516	1.18093
0.426	2.34011	1.17177
0.429	2.35467	1.16207
0.432	2.36883	1.15184
0.435	2.38256	1.14111
0.438	2.39585	1.12988
0.441	2.40868	1.11818
0.444	2.42103	1.10601
0.447	2.43288	1.09339
0.450	2.44421	1.08033
0.453	2.45502	1.06684
0.456	2.46527	1.05295
0.459	2.47495	1.03865
0.462	2.48404	1.02397
0.465	2.49251	1.00892
0.468	2.50034	0.99351
0.471	2.50749	0.97775
0.474	2.51394	0.96166
0.477	2.51962	0.94525
0.480	2.52447	0.92858
0.483	2.52844	0.91173
0.486	2.53152	0.89478
0.489	2.53372	0.87782
0.492	2.53506	0.86091
0.495	2.53555	0.84410
0.498	2.53523	0.82746
0.501	2.53411	0.81101
0.504	2.53222	0.79482
0.507	2.52959	0.77892
0.510	2.52627	0.76334
0.513	2.52226	0.74812
0.516	2.51762	0.73328
0.519	2.51237	0.71887
0.522	2.50655	0.70489
0.525	2.50019	0.69138
0.528	2.49333	0.67836
0.531	2.48601	0.66585
0.534	2.47827	0.65386
0.537	2.47017	0.64242
0.540	2.46174	0.63153
0.543	2.45307	0.62120
0.546	2.44420	0.61139
0.549	2.43516	0.60208
0.552	2.42598	0.59323
0.555	2.41668	0.58484
0.558	2.40728	0.57688
0.561	2.39779	0.56932
0.564	2.38823	0.56216
0.567	2.37860	0.55537
0.570	2.36893	0.54895
0.573	2.35921	0.54287
0.576	2.34945	0.53712
0.579	2.33966	0.53169
0.582	2.32985	0.52657
0.585	2.32002	0.52174
0.588	2.31017	0.51719
0.591	2.30030	0.51292
0.594	2.29043	0.50891
0.597	2.28055	0.50515
0.600	2.27066	0.50164
0.603	2.26077	0.49837
0.606	2.25087	0.49532
0.609	2.24097	0.49249
0.612	2.23106	0.48987
0.615	2.22114	0.48746
0.618	2.21121	0.48525
0.621	2.20127	0.48323
0.624	2.19132	0.48140
0.627	2.18133	0.47976
0.630	2.17133	0.47832
0.633	2.16130	0.47707
0.636	2.15124	0.47601
0.639	2.14116	0.47515
0.642	2.13106	0.47448
0.645	2.12094	0.47401
0.648	2.11080	0.47373
0.651	2.10065	0.47365
0.654	2.09048	0.47377
0.657	2.08029	0.47408
0.660	2.07010	0.47459
0.663	2.05991	0.47530
0.666	2.04970	0.47621
0.669	2.03950	0.47731
0.672	2.02930	0.47861
0.675	2.01911	0.48011
0.678	2.00892	0.48181
0.681	1.99874	0.48370
0.684	1.98858	0.48579
0.687	1.97844	0.48808
0.690	1.96832	0.49056
0.693	1.95823	0.49324
0.696	1.94816	0.49612
0.699	1.93813	0.49919
0.702	1.92814	0.50245
0.705	1.91819	0.50591
0.708	1.90829	0.50956
0.711	1.89843	0.51341
0.714	1.88864	0.51744
0.717	1.87890	0.52167
0.720	1.86923	0.52609
0.723	1.85963	0.53069
0.726	1.85011	0.53548
0.729	1.84067	0.54045
0.732	1.83132	0.54560
0.735	1.82207	0.55093
0.738	1.81292	0.55643
0.741	1.80389	0.56208
0.744	1.79496	0.56790
0.747	1.78615	0.57386
0.750	1.77746	0.57996
0.753	1.76888	0.58621
0.756	1.76043	0.59258
0.759	1.75210	0.59908
0.762	1.74389	0.60570
0.765	1.73580	0.61243
0.768	1.72784	0.61927
0.771	1.72001	0.62622
0.774	1.71230	0.63326
0.777	1.70471	0.64040
0.780	1.69725	0.64762
0.783	1.68992	0.65493
0.786	1.68271	0.66232
0.789	1.67562	0.66978
0.792	1.66865	0.67731
0.795	1.66181	0.68490
0.798	1.65509	0.69256
0.801	1.64848	0.70028
0.804	1.64199	0.70804
0.807	1.63562	0.71586
0.810	1.62937	0.72372
0.813	1.62323	0.73163
0.816	1.61719	0.73957
0.819	1.61127	0.74755
0.822	1.60545	0.75556
0.825	1.59974	0.76360
0.828	1.59414	0.77166
0.831	1.58863	0.77975
0.834	1.58322	0.78785
0.837	1.57790	0.79598
0.840	1.57268	0.80412
0.843	1.56755	0.81227
0.846	1.56251	0.82044
0.849	1.55755	0.82861
0.852	1.55267	0.83679
0.855	1.54788	0.84498
0.858	1.54316	0.85317
0.861	1.53851	0.86136
0.864	1.53394	0.86955
0.867	1.52943	0.87775
0.870	1.52498	0.88594
0.873	1.52060	0.89414
0.876	1.51628	0.90233
0.879	1.51200	0.91051
0.882	1.50778	0.91870
0.885	1.50361	0.92688
0.888	1.49948	0.93507
0.891	1.49538	0.94325
0.894	1.49132	0.95144
0.897	1.48729	0.95964
0.900	1.48329	0.96785
0.903	1.47933	0.97608
0.906	1.47539	0.98433
0.909	1.47149	0.99260
0.912	1.46762	1.00088
0.915	1.46378	1.00920
0.918	1.45998	1.01754
0.921	1.45621	1.02590
0.924	1.45247	1.03430
0.927	1.44877	1.04272
0.930	1.44511	1.05118
0.933	1.44148	1.05967
0.936	1.43789	1.06819
0.939	1.43435	1.07674
0.942	1.43084	1.08533
0.945	1.42738	1.09395
0.948	1.42396	1.10261
0.951	1.42059	1.11130
0.954	1.41726	1.12003
0.957	1.41398	1.12878
0.960	1.41074	1.13758
0.963	1.40756	1.14640
0.966	1.40442	1.15527
0.969	1.40134	1.16416
0.972	1.39831	1.17308
0.975	1.39534	1.18204
0.978	1.39241	1.19103
0.981	1.38955	1.20005
0.984	1.38674	1.20910
0.987	1.38399	1.21818
0.990	1.38129	1.22729
0.993	1.37866	1.23642
0.996	1.37608	1.24559
0.999	1.37356	1.25477
1.012	1.36337	1.29485
1.030	1.35120	1.35095
1.048	1.34135	1.40753
1.066	1.33381	1.46434
1.084	1.32855	1.52115
1.102	1.32547	1.57775
1.120	1.32447	1.63395
1.138	1.32543	1.68960
1.156	1.32820	1.74456
1.174	1.33265	1.79873
1.192	1.33862	1.85201
1.210	1.34596	1.90436
1.228	1.35453	1.95574
1.246	1.36420	2.00613
1.264	1.37486	2.05552
1.282	1.38639	2.10391
1.300	1.39868	2.15131
1.318	1.41164	2.19773
1.336	1.42518	2.24320
1.354	1.43923	2.28775
1.372	1.45370	2.33140
1.390	1.46854	2.37418
1.408	1.48368	2.41612
1.426	1.49906	2.45727
1.444	1.51463	2.49765
1.462	1.53034	2.53730
1.480	1.54614	2.57627
1.498	1.56200	2.61458
1.516	1.57787	2.65230
1.534	1.59370	2.68947
1.552	1.60945	2.72613
1.570	1.62508	2.76239
1.588	1.64058	2.79836
1.606	1.65602	2.83413
1.624	1.67145	2.86974
1.642	1.68694	2.90522
1.660	1.70252	2.94058
1.678	1.71825	2.97583
1.696	1.73416	3.01097
1.714	1.75028	3.04597
1.732	1.76664	3.08083
1.750	1.78326	3.11553
1.768	1.80015	3.15006
1.786	1.81733	3.18439
1.804	1.83480	3.21851
1.822	1.85256	3.25241
1.840	1.87063	3.28606
1.858	1.88900	3.31945
1.876	1.90768	3.35256
1.894	1.92664	3.38539
1.912	1.94590	3.41790
1.930	1.96544	3.45010
1.948	1.98526	3.48197
1.966	2.00536	3.51349
1.984	2.02571	3.54467
2.002	2.04632	3.57549
2.020	2.06717	3.60594
2.038	2.08825	3.63601
2.056	2.10957	3.66571
2.074	2.13109	3.69502
2.092	2.15283	3.72394
2.110	2.17476	3.75247
2.128	2.19688	3.78060
2.146	2.21918	3.80833
2.164	2.24165	3.83565
2.182	2.26429	3.86257
2.200	2.28708	3.88909
2.218	2.31002	3.91519
2.236	2.33310	3.94088
2.254	2.35631	3.96616
2.272	2.37965	3.99103
2.290	2.40311	4.01548
2.308	2.42669	4.03952
2.326	2.45038	4.06314
2.344	2.47418	4.08634
2.362	2.49808	4.10912
2.380	2.52209	4.13148
2.398	2.54619	4.15342
2.416	2.57039	4.17493
2.434	2.59469	4.19601
2.452	2.61908	4.21665
2.470	2.64358	4.23684
2.488	2.66819	4.25657
