Material: main / VO2 / Oguntoye-40C
Optical constants. I. O. Oguntoye, S. Padmanabha, M. Hinkle, T. Koutsougeras, A. J. Ollanik, M. D. Escarra. Continuously tunable optical modulation using vanadium dioxide Huygens metasurfaces, ACS Appl. Mater. Interfaces 15, 41141–41150 (2023) (Numerical data kindly provided by Isaac Oguntoye)
Comments: ~209 nm-thick VO2 film on SiO2 substrate. 40 °C.
Specs: {"n_is_absolute": true, "wavelength_is_vacuum": true, "temperature": "40 °C", "film_thickness": "209e-9", "substrate": "SiO2"}
wavelength (um)	n	k
0.210	1.63462	1.01514
0.213	1.64332	1.01307
0.216	1.65223	1.01001
0.219	1.66082	1.00622
0.222	1.66870	1.00190
0.225	1.67550	0.99735
0.228	1.68110	0.99294
0.231	1.68550	0.98894
0.234	1.68870	0.98556
0.237	1.69073	0.98305
0.240	1.69171	0.98167
0.243	1.69182	0.98163
0.246	1.69131	0.98308
0.249	1.69043	0.98609
0.252	1.68945	0.99067
0.255	1.68856	0.99677
0.258	1.68796	1.00434
0.261	1.68780	1.01331
0.264	1.68823	1.02360
0.267	1.68939	1.03514
0.270	1.69142	1.04783
0.273	1.69443	1.06158
0.276	1.69855	1.07627
0.279	1.70387	1.09179
0.282	1.71053	1.10801
0.285	1.71862	1.12475
0.288	1.72819	1.14179
0.291	1.73923	1.15894
0.294	1.75171	1.17605
0.297	1.76558	1.19299
0.300	1.78081	1.20962
0.303	1.79735	1.22584
0.306	1.81520	1.24153
0.309	1.83426	1.25653
0.312	1.85444	1.27074
0.315	1.87563	1.28407
0.318	1.89773	1.29648
0.321	1.92066	1.30792
0.324	1.94433	1.31836
0.327	1.96869	1.32777
0.330	1.99370	1.33608
0.333	2.01926	1.34322
0.336	2.04525	1.34914
0.339	2.07156	1.35381
0.342	2.09808	1.35723
0.345	2.12470	1.35940
0.348	2.15132	1.36034
0.351	2.17784	1.36007
0.354	2.20417	1.35863
0.357	2.23021	1.35607
0.360	2.25589	1.35246
0.363	2.28116	1.34787
0.366	2.30599	1.34236
0.369	2.33035	1.33598
0.372	2.35422	1.32879
0.375	2.37757	1.32082
0.378	2.40038	1.31212
0.381	2.42265	1.30273
0.384	2.44437	1.29268
0.387	2.46551	1.28201
0.390	2.48607	1.27076
0.393	2.50604	1.25893
0.396	2.52541	1.24657
0.399	2.54417	1.23370
0.402	2.56231	1.22033
0.405	2.57980	1.20650
0.408	2.59665	1.19222
0.411	2.61283	1.17751
0.414	2.62833	1.16240
0.417	2.64312	1.14691
0.420	2.65719	1.13106
0.423	2.67051	1.11486
0.426	2.68303	1.09835
0.429	2.69472	1.08155
0.432	2.70550	1.06455
0.435	2.71535	1.04745
0.438	2.72431	1.03033
0.441	2.73238	1.01328
0.444	2.73961	0.99636
0.447	2.74602	0.97962
0.450	2.75166	0.96312
0.453	2.75657	0.94690
0.456	2.76079	0.93100
0.459	2.76437	0.91545
0.462	2.76734	0.90029
0.465	2.76977	0.88554
0.468	2.77169	0.87123
0.471	2.77316	0.85738
0.474	2.77423	0.84401
0.477	2.77497	0.83112
0.480	2.77546	0.81872
0.483	2.77576	0.80676
0.486	2.77591	0.79521
0.489	2.77593	0.78403
0.492	2.77585	0.77318
0.495	2.77568	0.76263
0.498	2.77542	0.75237
0.501	2.77509	0.74237
0.504	2.77469	0.73260
0.507	2.77422	0.72304
0.510	2.77369	0.71369
0.513	2.77310	0.70451
0.516	2.77243	0.69550
0.519	2.77170	0.68664
0.522	2.77090	0.67791
0.525	2.77002	0.66931
0.528	2.76905	0.66082
0.531	2.76798	0.65244
0.534	2.76682	0.64415
0.537	2.76553	0.63594
0.540	2.76411	0.62782
0.543	2.76252	0.61978
0.546	2.76076	0.61185
0.549	2.75881	0.60404
0.552	2.75668	0.59636
0.555	2.75436	0.58885
0.558	2.75186	0.58149
0.561	2.74918	0.57432
0.564	2.74634	0.56734
0.567	2.74333	0.56056
0.570	2.74017	0.55399
0.573	2.73686	0.54764
0.576	2.73341	0.54151
0.579	2.72983	0.53561
0.582	2.72614	0.52995
0.585	2.72233	0.52454
0.588	2.71843	0.51938
0.591	2.71444	0.51447
0.594	2.71037	0.50982
0.597	2.70624	0.50543
0.600	2.70205	0.50131
0.603	2.69783	0.49746
0.606	2.69358	0.49387
0.609	2.68931	0.49056
0.612	2.68504	0.48753
0.615	2.68079	0.48477
0.618	2.67657	0.48228
0.621	2.67240	0.48007
0.624	2.66831	0.47813
0.627	2.66432	0.47644
0.630	2.66044	0.47498
0.633	2.65668	0.47374
0.636	2.65304	0.47270
0.639	2.64954	0.47186
0.642	2.64617	0.47119
0.645	2.64294	0.47068
0.648	2.63985	0.47032
0.651	2.63690	0.47010
0.654	2.63410	0.47001
0.657	2.63144	0.47004
0.660	2.62892	0.47017
0.663	2.62655	0.47040
0.666	2.62432	0.47072
0.669	2.62223	0.47112
0.672	2.62027	0.47159
0.675	2.61846	0.47212
0.678	2.61678	0.47271
0.681	2.61522	0.47335
0.684	2.61380	0.47403
0.687	2.61251	0.47474
0.690	2.61134	0.47549
0.693	2.61028	0.47626
0.696	2.60935	0.47704
0.699	2.60852	0.47784
0.702	2.60781	0.47865
0.705	2.60720	0.47946
0.708	2.60669	0.48027
0.711	2.60628	0.48107
0.714	2.60596	0.48186
0.717	2.60573	0.48265
0.720	2.60559	0.48341
0.723	2.60553	0.48415
0.726	2.60554	0.48488
0.729	2.60562	0.48557
0.732	2.60577	0.48624
0.735	2.60597	0.48689
0.738	2.60623	0.48750
0.741	2.60654	0.48809
0.744	2.60689	0.48866
0.747	2.60728	0.48921
0.750	2.60771	0.48973
0.753	2.60819	0.49024
0.756	2.60869	0.49072
0.759	2.60924	0.49118
0.762	2.60981	0.49163
0.765	2.61042	0.49205
0.768	2.61105	0.49246
0.771	2.61171	0.49285
0.774	2.61240	0.49323
0.777	2.61312	0.49359
0.780	2.61386	0.49393
0.783	2.61462	0.49427
0.786	2.61540	0.49458
0.789	2.61621	0.49489
0.792	2.61704	0.49518
0.795	2.61788	0.49545
0.798	2.61875	0.49572
0.801	2.61964	0.49597
0.804	2.62054	0.49621
0.807	2.62146	0.49644
0.810	2.62240	0.49666
0.813	2.62335	0.49687
0.816	2.62432	0.49707
0.819	2.62531	0.49726
0.822	2.62631	0.49743
0.825	2.62732	0.49760
0.828	2.62835	0.49776
0.831	2.62939	0.49792
0.834	2.63045	0.49806
0.837	2.63152	0.49819
0.840	2.63260	0.49832
0.843	2.63370	0.49844
0.846	2.63481	0.49855
0.849	2.63593	0.49866
0.852	2.63707	0.49875
0.855	2.63821	0.49884
0.858	2.63937	0.49893
0.861	2.64054	0.49900
0.864	2.64173	0.49907
0.867	2.64292	0.49913
0.870	2.64413	0.49919
0.873	2.64535	0.49924
0.876	2.64658	0.49929
0.879	2.64783	0.49932
0.882	2.64909	0.49936
0.885	2.65036	0.49938
0.888	2.65164	0.49940
0.891	2.65294	0.49942
0.894	2.65425	0.49943
0.897	2.65558	0.49943
0.900	2.65692	0.49942
0.903	2.65828	0.49940
0.906	2.65965	0.49937
0.909	2.66103	0.49934
0.912	2.66243	0.49929
0.915	2.66385	0.49923
0.918	2.66527	0.49916
0.921	2.66671	0.49908
0.924	2.66816	0.49898
0.927	2.66963	0.49887
0.930	2.67110	0.49875
0.933	2.67259	0.49862
0.936	2.67409	0.49847
0.939	2.67560	0.49830
0.942	2.67711	0.49812
0.945	2.67864	0.49793
0.948	2.68018	0.49772
0.951	2.68172	0.49750
0.954	2.68328	0.49726
0.957	2.68484	0.49701
0.960	2.68641	0.49674
0.963	2.68798	0.49646
0.966	2.68956	0.49615
0.969	2.69115	0.49584
0.972	2.69275	0.49550
0.975	2.69435	0.49515
0.978	2.69595	0.49479
0.981	2.69756	0.49441
0.984	2.69917	0.49401
0.987	2.70078	0.49359
0.990	2.70240	0.49316
0.993	2.70402	0.49271
0.996	2.70565	0.49225
0.999	2.70727	0.49176
1.012	2.71433	0.48948
1.030	2.72409	0.48582
1.048	2.73376	0.48157
1.066	2.74329	0.47676
1.084	2.75261	0.47140
1.102	2.76164	0.46553
1.120	2.77034	0.45917
1.138	2.77863	0.45235
1.156	2.78644	0.44515
1.174	2.79373	0.43765
1.192	2.80050	0.42995
1.210	2.80675	0.42209
1.228	2.81250	0.41414
1.246	2.81777	0.40615
1.264	2.82258	0.39815
1.282	2.82695	0.39018
1.300	2.83091	0.38226
1.318	2.83448	0.37442
1.336	2.83767	0.36667
1.354	2.84052	0.35903
1.372	2.84305	0.35152
1.390	2.84526	0.34414
1.408	2.84719	0.33691
1.426	2.84884	0.32982
1.444	2.85025	0.32289
1.462	2.85141	0.31612
1.480	2.85235	0.30951
1.498	2.85309	0.30306
1.516	2.85362	0.29678
1.534	2.85397	0.29066
1.552	2.85415	0.28470
1.570	2.85417	0.27891
1.588	2.85402	0.27329
1.606	2.85374	0.26783
1.624	2.85331	0.26254
1.642	2.85276	0.25742
1.660	2.85208	0.25246
1.678	2.85130	0.24768
1.696	2.85042	0.24306
1.714	2.84945	0.23861
1.732	2.84840	0.23431
1.750	2.84727	0.23018
1.768	2.84607	0.22621
1.786	2.84481	0.22240
1.804	2.84349	0.21873
1.822	2.84213	0.21522
1.840	2.84072	0.21186
1.858	2.83927	0.20864
1.876	2.83779	0.20556
1.894	2.83629	0.20262
1.912	2.83476	0.19981
1.930	2.83321	0.19714
1.948	2.83164	0.19460
1.966	2.83007	0.19218
1.984	2.82848	0.18989
2.002	2.82689	0.18772
2.020	2.82531	0.18566
2.038	2.82372	0.18372
2.056	2.82214	0.18189
2.074	2.82057	0.18016
2.092	2.81900	0.17854
2.110	2.81745	0.17703
2.128	2.81592	0.17561
2.146	2.81440	0.17429
2.164	2.81290	0.17307
2.182	2.81142	0.17193
2.200	2.80997	0.17089
2.218	2.80853	0.16993
2.236	2.80713	0.16905
2.254	2.80575	0.16826
2.272	2.80441	0.16755
2.290	2.80309	0.16691
2.308	2.80180	0.16634
2.326	2.80055	0.16585
2.344	2.79934	0.16543
2.362	2.79816	0.16508
2.380	2.79701	0.16479
2.398	2.79591	0.16456
2.416	2.79484	0.16440
2.434	2.79382	0.16430
2.452	2.79284	0.16425
2.470	2.79190	0.16426
2.488	2.79101	0.16432
