Material: main / VO2 / Oguntoye-60C
Optical constants. I. O. Oguntoye, S. Padmanabha, M. Hinkle, T. Koutsougeras, A. J. Ollanik, M. D. Escarra. Continuously tunable optical modulation using vanadium dioxide Huygens metasurfaces, ACS Appl. Mater. Interfaces 15, 41141–41150 (2023) (Numerical data kindly provided by Isaac Oguntoye)
Comments: ~209 nm-thick VO2 film on SiO2 substrate. 60 °C.
Specs: {"n_is_absolute": true, "wavelength_is_vacuum": true, "temperature": "60 °C", "film_thickness": "209e-9", "substrate": "SiO2"}
wavelength (um)	n	k
0.210	1.55554	0.83117
0.213	1.55878	0.82968
0.216	1.56324	0.82811
0.219	1.56846	0.82630
0.222	1.57401	0.82412
0.225	1.57947	0.82162
0.228	1.58460	0.81898
0.231	1.58932	0.81634
0.234	1.59354	0.81380
0.237	1.59723	0.81145
0.240	1.60035	0.80939
0.243	1.60292	0.80772
0.246	1.60493	0.80650
0.249	1.60639	0.80580
0.252	1.60727	0.80576
0.255	1.60765	0.80653
0.258	1.60766	0.80824
0.261	1.60744	0.81095
0.264	1.60714	0.81471
0.267	1.60694	0.81954
0.270	1.60699	0.82539
0.273	1.60741	0.83222
0.276	1.60832	0.83999
0.279	1.60984	0.84863
0.282	1.61210	0.85807
0.285	1.61520	0.86820
0.288	1.61923	0.87888
0.291	1.62424	0.88999
0.294	1.63024	0.90140
0.297	1.63726	0.91300
0.300	1.64530	0.92470
0.303	1.65439	0.93640
0.306	1.66456	0.94796
0.309	1.67578	0.95920
0.312	1.68797	0.97001
0.315	1.70104	0.98028
0.318	1.71490	0.98993
0.321	1.72946	0.99891
0.324	1.74461	1.00718
0.327	1.76028	1.01472
0.330	1.77638	1.02151
0.333	1.79282	1.02757
0.336	1.80957	1.03290
0.339	1.82656	1.03751
0.342	1.84375	1.04141
0.345	1.86110	1.04462
0.348	1.87859	1.04715
0.351	1.89618	1.04902
0.354	1.91386	1.05022
0.357	1.93164	1.05076
0.360	1.94949	1.05061
0.363	1.96738	1.04972
0.366	1.98525	1.04809
0.369	2.00305	1.04570
0.372	2.02074	1.04257
0.375	2.03824	1.03869
0.378	2.05553	1.03407
0.381	2.07254	1.02873
0.384	2.08923	1.02268
0.387	2.10554	1.01595
0.390	2.12141	1.00857
0.393	2.13678	1.00059
0.396	2.15164	0.99209
0.399	2.16598	0.98311
0.402	2.17979	0.97370
0.405	2.19306	0.96390
0.408	2.20581	0.95375
0.411	2.21802	0.94326
0.414	2.22971	0.93249
0.417	2.24087	0.92144
0.420	2.25150	0.91014
0.423	2.26163	0.89863
0.426	2.27123	0.88690
0.429	2.28032	0.87499
0.432	2.28890	0.86292
0.435	2.29697	0.85070
0.438	2.30453	0.83834
0.441	2.31159	0.82588
0.444	2.31816	0.81331
0.447	2.32422	0.80066
0.450	2.32980	0.78793
0.453	2.33488	0.77514
0.456	2.33948	0.76230
0.459	2.34358	0.74941
0.462	2.34719	0.73649
0.465	2.35030	0.72354
0.468	2.35291	0.71058
0.471	2.35500	0.69760
0.474	2.35657	0.68463
0.477	2.35759	0.67168
0.480	2.35801	0.65875
0.483	2.35782	0.64593
0.486	2.35702	0.63325
0.489	2.35561	0.62078
0.492	2.35362	0.60857
0.495	2.35106	0.59664
0.498	2.34796	0.58505
0.501	2.34434	0.57382
0.504	2.34024	0.56298
0.507	2.33569	0.55257
0.510	2.33071	0.54260
0.513	2.32535	0.53311
0.516	2.31963	0.52412
0.519	2.31358	0.51565
0.522	2.30726	0.50771
0.525	2.30070	0.50033
0.528	2.29394	0.49352
0.531	2.28703	0.48729
0.534	2.28002	0.48165
0.537	2.27297	0.47662
0.540	2.26594	0.47220
0.543	2.25903	0.46837
0.546	2.25230	0.46507
0.549	2.24579	0.46225
0.552	2.23952	0.45984
0.555	2.23352	0.45781
0.558	2.22780	0.45610
0.561	2.22236	0.45467
0.564	2.21720	0.45348
0.567	2.21233	0.45249
0.570	2.20775	0.45167
0.573	2.20345	0.45099
0.576	2.19941	0.45041
0.579	2.19564	0.44990
0.582	2.19213	0.44943
0.585	2.18885	0.44899
0.588	2.18580	0.44854
0.591	2.18297	0.44806
0.594	2.18033	0.44754
0.597	2.17786	0.44695
0.600	2.17556	0.44627
0.603	2.17341	0.44550
0.606	2.17137	0.44461
0.609	2.16943	0.44359
0.612	2.16757	0.44243
0.615	2.16577	0.44112
0.618	2.16398	0.43965
0.621	2.16219	0.43801
0.624	2.16035	0.43621
0.627	2.15842	0.43427
0.630	2.15639	0.43221
0.633	2.15425	0.43005
0.636	2.15198	0.42782
0.639	2.14957	0.42552
0.642	2.14703	0.42318
0.645	2.14434	0.42081
0.648	2.14151	0.41842
0.651	2.13854	0.41604
0.654	2.13541	0.41366
0.657	2.13215	0.41130
0.660	2.12873	0.40898
0.663	2.12518	0.40669
0.666	2.12148	0.40446
0.669	2.11764	0.40230
0.672	2.11367	0.40020
0.675	2.10956	0.39818
0.678	2.10533	0.39624
0.681	2.10097	0.39440
0.684	2.09650	0.39266
0.687	2.09190	0.39103
0.690	2.08720	0.38951
0.693	2.08238	0.38810
0.696	2.07747	0.38683
0.699	2.07246	0.38568
0.702	2.06736	0.38466
0.705	2.06217	0.38378
0.708	2.05691	0.38305
0.711	2.05157	0.38247
0.714	2.04616	0.38203
0.717	2.04070	0.38175
0.720	2.03518	0.38163
0.723	2.02961	0.38167
0.726	2.02401	0.38187
0.729	2.01838	0.38224
0.732	2.01273	0.38278
0.735	2.00708	0.38348
0.738	2.00142	0.38435
0.741	1.99578	0.38537
0.744	1.99015	0.38654
0.747	1.98453	0.38786
0.750	1.97894	0.38933
0.753	1.97338	0.39093
0.756	1.96785	0.39268
0.759	1.96235	0.39455
0.762	1.95689	0.39656
0.765	1.95147	0.39870
0.768	1.94608	0.40096
0.771	1.94075	0.40334
0.774	1.93546	0.40584
0.777	1.93022	0.40845
0.780	1.92503	0.41117
0.783	1.91989	0.41401
0.786	1.91481	0.41695
0.789	1.90978	0.41999
0.792	1.90481	0.42314
0.795	1.89990	0.42638
0.798	1.89505	0.42972
0.801	1.89026	0.43315
0.804	1.88553	0.43667
0.807	1.88087	0.44028
0.810	1.87626	0.44397
0.813	1.87173	0.44775
0.816	1.86726	0.45160
0.819	1.86285	0.45554
0.822	1.85852	0.45955
0.825	1.85425	0.46363
0.828	1.85005	0.46779
0.831	1.84591	0.47201
0.834	1.84185	0.47630
0.837	1.83786	0.48066
0.840	1.83393	0.48508
0.843	1.83008	0.48955
0.846	1.82629	0.49409
0.849	1.82258	0.49868
0.852	1.81893	0.50333
0.855	1.81536	0.50802
0.858	1.81185	0.51277
0.861	1.80842	0.51757
0.864	1.80505	0.52241
0.867	1.80176	0.52729
0.870	1.79853	0.53222
0.873	1.79538	0.53719
0.876	1.79229	0.54220
0.879	1.78927	0.54725
0.882	1.78632	0.55233
0.885	1.78343	0.55744
0.888	1.78061	0.56259
0.891	1.77786	0.56777
0.894	1.77517	0.57298
0.897	1.77254	0.57822
0.900	1.76997	0.58349
0.903	1.76747	0.58879
0.906	1.76504	0.59411
0.909	1.76266	0.59946
0.912	1.76035	0.60484
0.915	1.75810	0.61024
0.918	1.75591	0.61567
0.921	1.75378	0.62112
0.924	1.75171	0.62659
0.927	1.74971	0.63209
0.930	1.74777	0.63760
0.933	1.74588	0.64314
0.936	1.74406	0.64869
0.939	1.74230	0.65426
0.942	1.74060	0.65985
0.945	1.73896	0.66545
0.948	1.73737	0.67107
0.951	1.73585	0.67671
0.954	1.73439	0.68235
0.957	1.73299	0.68801
0.960	1.73164	0.69368
0.963	1.73035	0.69936
0.966	1.72912	0.70506
0.969	1.72795	0.71076
0.972	1.72684	0.71647
0.975	1.72578	0.72218
0.978	1.72478	0.72790
0.981	1.72384	0.73363
0.984	1.72295	0.73937
0.987	1.72212	0.74510
0.990	1.72134	0.75085
0.993	1.72062	0.75659
0.996	1.71995	0.76233
0.999	1.71934	0.76808
1.012	1.71729	0.79298
1.030	1.71604	0.82737
1.048	1.71652	0.86153
1.066	1.71862	0.89536
1.084	1.72221	0.92876
1.102	1.72717	0.96167
1.120	1.73334	0.99402
1.138	1.74057	1.02581
1.156	1.74873	1.05708
1.174	1.75776	1.08794
1.192	1.76766	1.11842
1.210	1.77841	1.14855
1.228	1.79004	1.17832
1.246	1.80255	1.20773
1.264	1.81593	1.23675
1.282	1.83018	1.26537
1.300	1.84529	1.29356
1.318	1.86126	1.32129
1.336	1.87808	1.34854
1.354	1.89571	1.37526
1.372	1.91416	1.40144
1.390	1.93340	1.42706
1.408	1.95342	1.45208
1.426	1.97420	1.47649
1.444	1.99572	1.50026
1.462	2.01797	1.52338
1.480	2.04094	1.54581
1.498	2.06463	1.56755
1.516	2.08903	1.58857
1.534	2.11415	1.60884
1.552	2.14003	1.62832
1.570	2.16670	1.64695
1.588	2.19419	1.66454
1.606	2.22237	1.68097
1.624	2.25114	1.69615
1.642	2.28035	1.71004
1.660	2.30991	1.72261
1.678	2.33968	1.73387
1.696	2.36959	1.74383
1.714	2.39952	1.75251
1.732	2.42941	1.75994
1.750	2.45917	1.76616
1.768	2.48875	1.77120
1.786	2.51808	1.77511
1.804	2.54712	1.77793
1.822	2.57582	1.77970
1.840	2.60414	1.78046
1.858	2.63204	1.78026
1.876	2.65951	1.77914
1.894	2.68650	1.77714
1.912	2.71301	1.77430
1.930	2.73901	1.77066
1.948	2.76448	1.76626
1.966	2.78942	1.76113
1.984	2.81380	1.75531
2.002	2.83763	1.74883
2.020	2.86089	1.74172
2.038	2.88358	1.73401
2.056	2.90569	1.72574
2.074	2.92721	1.71693
2.092	2.94816	1.70760
2.110	2.96851	1.69778
2.128	2.98828	1.68750
2.146	3.00746	1.67678
2.164	3.02606	1.66564
2.182	3.04406	1.65410
2.200	3.06148	1.64218
2.218	3.07831	1.62990
2.236	3.09455	1.61728
2.254	3.11021	1.60433
2.272	3.12529	1.59107
2.290	3.13979	1.57753
2.308	3.15371	1.56370
2.326	3.16705	1.54961
2.344	3.17981	1.53528
2.362	3.19200	1.52070
2.380	3.20361	1.50590
2.398	3.21464	1.49089
2.416	3.22510	1.47568
2.434	3.23498	1.46028
2.452	3.24428	1.44470
2.470	3.25299	1.42895
2.488	3.26111	1.41305
