Material: main / VO2 / Oguntoye-50C
Optical constants. I. O. Oguntoye, S. Padmanabha, M. Hinkle, T. Koutsougeras, A. J. Ollanik, M. D. Escarra. Continuously tunable optical modulation using vanadium dioxide Huygens metasurfaces, ACS Appl. Mater. Interfaces 15, 41141–41150 (2023) (Numerical data kindly provided by Isaac Oguntoye)
Comments: ~209 nm-thick VO2 film on SiO2 substrate. 50 °C.
Specs: {"n_is_absolute": true, "wavelength_is_vacuum": true, "temperature": "50 °C", "film_thickness": "209e-9", "substrate": "SiO2"}
wavelength (um)	n	k
0.210	1.65596	1.02011
0.213	1.66276	1.01798
0.216	1.67047	1.01535
0.219	1.67849	1.01207
0.222	1.68620	1.00808
0.225	1.69297	1.00365
0.228	1.69855	0.99925
0.231	1.70293	0.99524
0.234	1.70615	0.99188
0.237	1.70827	0.98941
0.240	1.70941	0.98805
0.243	1.70978	0.98799
0.246	1.70958	0.98934
0.249	1.70902	0.99218
0.252	1.70834	0.99651
0.255	1.70774	1.00232
0.258	1.70738	1.00957
0.261	1.70744	1.01821
0.264	1.70807	1.02816
0.267	1.70942	1.03936
0.270	1.71163	1.05170
0.273	1.71482	1.06508
0.276	1.71909	1.07938
0.279	1.72455	1.09450
0.282	1.73130	1.11030
0.285	1.73945	1.12662
0.288	1.74904	1.14327
0.291	1.76006	1.16006
0.294	1.77251	1.17686
0.297	1.78636	1.19353
0.300	1.80158	1.20995
0.303	1.81818	1.22600
0.306	1.83616	1.24153
0.309	1.85543	1.25634
0.312	1.87589	1.27030
0.315	1.89739	1.28330
0.318	1.91982	1.29529
0.321	1.94305	1.30621
0.324	1.96698	1.31602
0.327	1.99152	1.32472
0.330	2.01658	1.33227
0.333	2.04206	1.33864
0.336	2.06786	1.34382
0.339	2.09389	1.34782
0.342	2.12005	1.35063
0.345	2.14626	1.35229
0.348	2.17244	1.35282
0.351	2.19853	1.35224
0.354	2.22445	1.35059
0.357	2.25014	1.34790
0.360	2.27556	1.34420
0.363	2.30066	1.33954
0.366	2.32539	1.33394
0.369	2.34971	1.32745
0.372	2.37359	1.32010
0.375	2.39699	1.31192
0.378	2.41989	1.30295
0.381	2.44224	1.29323
0.384	2.46403	1.28277
0.387	2.48522	1.27162
0.390	2.50577	1.25982
0.393	2.52566	1.24741
0.396	2.54488	1.23444
0.399	2.56341	1.22096
0.402	2.58124	1.20699
0.405	2.59837	1.19258
0.408	2.61479	1.17775
0.411	2.63050	1.16253
0.414	2.64547	1.14696
0.417	2.65971	1.13106
0.420	2.67319	1.11485
0.423	2.68590	1.09836
0.426	2.69781	1.08161
0.429	2.70888	1.06464
0.432	2.71906	1.04751
0.435	2.72834	1.03034
0.438	2.73674	1.01318
0.441	2.74429	0.99613
0.444	2.75101	0.97923
0.447	2.75695	0.96253
0.450	2.76214	0.94609
0.453	2.76663	0.92995
0.456	2.77044	0.91413
0.459	2.77364	0.89868
0.462	2.77626	0.88362
0.465	2.77835	0.86899
0.468	2.77996	0.85479
0.471	2.78114	0.84105
0.474	2.78193	0.82779
0.477	2.78242	0.81501
0.480	2.78266	0.80272
0.483	2.78273	0.79087
0.486	2.78267	0.77942
0.489	2.78249	0.76833
0.492	2.78221	0.75757
0.495	2.78186	0.74711
0.498	2.78143	0.73693
0.501	2.78094	0.72699
0.504	2.78039	0.71729
0.507	2.77977	0.70779
0.510	2.77910	0.69848
0.513	2.77837	0.68934
0.516	2.77758	0.68036
0.519	2.77672	0.67151
0.522	2.77579	0.66280
0.525	2.77478	0.65419
0.528	2.77369	0.64569
0.531	2.77250	0.63729
0.534	2.77120	0.62896
0.537	2.76978	0.62071
0.540	2.76822	0.61253
0.543	2.76648	0.60443
0.546	2.76456	0.59642
0.549	2.76244	0.58853
0.552	2.76012	0.58077
0.555	2.75760	0.57317
0.558	2.75488	0.56573
0.561	2.75198	0.55848
0.564	2.74889	0.55141
0.567	2.74563	0.54455
0.570	2.74220	0.53791
0.573	2.73861	0.53149
0.576	2.73487	0.52531
0.579	2.73099	0.51936
0.582	2.72699	0.51367
0.585	2.72286	0.50823
0.588	2.71863	0.50305
0.591	2.71430	0.49814
0.594	2.70989	0.49350
0.597	2.70541	0.48914
0.600	2.70087	0.48506
0.603	2.69628	0.48126
0.606	2.69167	0.47775
0.609	2.68704	0.47453
0.612	2.68241	0.47161
0.615	2.67779	0.46897
0.618	2.67321	0.46663
0.621	2.66869	0.46458
0.624	2.66425	0.46282
0.627	2.65993	0.46133
0.630	2.65572	0.46008
0.633	2.65164	0.45907
0.636	2.64770	0.45828
0.639	2.64391	0.45768
0.642	2.64027	0.45727
0.645	2.63678	0.45703
0.648	2.63344	0.45695
0.651	2.63027	0.45701
0.654	2.62725	0.45721
0.657	2.62438	0.45753
0.660	2.62168	0.45796
0.663	2.61914	0.45849
0.666	2.61675	0.45910
0.669	2.61451	0.45980
0.672	2.61242	0.46057
0.675	2.61049	0.46140
0.678	2.60870	0.46229
0.681	2.60706	0.46322
0.684	2.60556	0.46419
0.687	2.60419	0.46520
0.690	2.60296	0.46622
0.693	2.60186	0.46727
0.696	2.60089	0.46833
0.699	2.60004	0.46939
0.702	2.59931	0.47046
0.705	2.59869	0.47152
0.708	2.59818	0.47258
0.711	2.59777	0.47362
0.714	2.59747	0.47464
0.717	2.59726	0.47565
0.720	2.59714	0.47663
0.723	2.59711	0.47758
0.726	2.59716	0.47850
0.729	2.59727	0.47938
0.732	2.59746	0.48023
0.735	2.59771	0.48104
0.738	2.59800	0.48182
0.741	2.59835	0.48257
0.744	2.59874	0.48329
0.747	2.59917	0.48398
0.750	2.59965	0.48463
0.753	2.60016	0.48527
0.756	2.60070	0.48587
0.759	2.60128	0.48646
0.762	2.60189	0.48701
0.765	2.60252	0.48755
0.768	2.60319	0.48807
0.771	2.60387	0.48856
0.774	2.60459	0.48904
0.777	2.60533	0.48949
0.780	2.60608	0.48993
0.783	2.60686	0.49035
0.786	2.60766	0.49076
0.789	2.60848	0.49114
0.792	2.60932	0.49152
0.795	2.61018	0.49188
0.798	2.61105	0.49222
0.801	2.61194	0.49255
0.804	2.61285	0.49287
0.807	2.61377	0.49318
0.810	2.61470	0.49347
0.813	2.61565	0.49375
0.816	2.61662	0.49403
0.819	2.61760	0.49429
0.822	2.61859	0.49454
0.825	2.61959	0.49478
0.828	2.62061	0.49502
0.831	2.62163	0.49524
0.834	2.62267	0.49546
0.837	2.62373	0.49567
0.840	2.62479	0.49587
0.843	2.62587	0.49606
0.846	2.62695	0.49625
0.849	2.62805	0.49643
0.852	2.62916	0.49660
0.855	2.63028	0.49676
0.858	2.63142	0.49692
0.861	2.63256	0.49708
0.864	2.63371	0.49723
0.867	2.63488	0.49737
0.870	2.63606	0.49751
0.873	2.63725	0.49764
0.876	2.63845	0.49777
0.879	2.63966	0.49789
0.882	2.64089	0.49801
0.885	2.64213	0.49812
0.888	2.64338	0.49823
0.891	2.64465	0.49833
0.894	2.64593	0.49843
0.897	2.64723	0.49852
0.900	2.64854	0.49861
0.903	2.64986	0.49869
0.906	2.65121	0.49875
0.909	2.65256	0.49881
0.912	2.65393	0.49886
0.915	2.65532	0.49890
0.918	2.65672	0.49893
0.921	2.65813	0.49894
0.924	2.65955	0.49895
0.927	2.66099	0.49894
0.930	2.66244	0.49892
0.933	2.66390	0.49889
0.936	2.66538	0.49884
0.939	2.66687	0.49878
0.942	2.66836	0.49870
0.945	2.66987	0.49862
0.948	2.67138	0.49851
0.951	2.67291	0.49840
0.954	2.67445	0.49826
0.957	2.67599	0.49812
0.960	2.67754	0.49795
0.963	2.67910	0.49778
0.966	2.68067	0.49758
0.969	2.68225	0.49737
0.972	2.68383	0.49715
0.975	2.68541	0.49691
0.978	2.68701	0.49665
0.981	2.68860	0.49637
0.984	2.69021	0.49609
0.987	2.69181	0.49578
0.990	2.69343	0.49546
0.993	2.69504	0.49512
0.996	2.69666	0.49476
0.999	2.69828	0.49439
1.012	2.70533	0.49259
1.030	2.71510	0.48960
1.048	2.72483	0.48602
1.066	2.73445	0.48187
1.084	2.74388	0.47719
1.102	2.75307	0.47198
1.120	2.76196	0.46628
1.138	2.77048	0.46012
1.156	2.77856	0.45356
1.174	2.78616	0.44669
1.192	2.79327	0.43958
1.210	2.79991	0.43230
1.228	2.80608	0.42489
1.246	2.81180	0.41741
1.264	2.81709	0.40988
1.282	2.82196	0.40235
1.300	2.82643	0.39483
1.318	2.83052	0.38735
1.336	2.83426	0.37992
1.354	2.83766	0.37257
1.372	2.84073	0.36530
1.390	2.84350	0.35814
1.408	2.84598	0.35107
1.426	2.84819	0.34412
1.444	2.85013	0.33729
1.462	2.85184	0.33059
1.480	2.85331	0.32401
1.498	2.85456	0.31756
1.516	2.85560	0.31124
1.534	2.85644	0.30506
1.552	2.85708	0.29902
1.570	2.85754	0.29310
1.588	2.85782	0.28733
1.606	2.85792	0.28171
1.624	2.85786	0.27624
1.642	2.85765	0.27092
1.660	2.85729	0.26577
1.678	2.85679	0.26077
1.696	2.85617	0.25593
1.714	2.85544	0.25125
1.732	2.85459	0.24674
1.750	2.85365	0.24238
1.768	2.85262	0.23819
1.786	2.85150	0.23415
1.804	2.85032	0.23027
1.822	2.84906	0.22654
1.840	2.84774	0.22297
1.858	2.84637	0.21955
1.876	2.84495	0.21627
1.894	2.84349	0.21315
1.912	2.84199	0.21016
1.930	2.84046	0.20731
1.948	2.83890	0.20461
1.966	2.83732	0.20203
1.984	2.83572	0.19959
2.002	2.83411	0.19728
2.020	2.83249	0.19509
2.038	2.83087	0.19303
2.056	2.82924	0.19108
2.074	2.82761	0.18926
2.092	2.82599	0.18755
2.110	2.82437	0.18595
2.128	2.82277	0.18446
2.146	2.82118	0.18307
2.164	2.81960	0.18179
2.182	2.81804	0.18061
2.200	2.81650	0.17953
2.218	2.81499	0.17854
2.236	2.81350	0.17765
2.254	2.81203	0.17684
2.272	2.81060	0.17612
2.290	2.80919	0.17549
2.308	2.80782	0.17494
2.326	2.80648	0.17448
2.344	2.80517	0.17408
2.362	2.80391	0.17377
2.380	2.80268	0.17353
2.398	2.80149	0.17336
2.416	2.80035	0.17326
2.434	2.79925	0.17322
2.452	2.79819	0.17325
2.470	2.79718	0.17335
2.488	2.79622	0.17350
