Material: lzos / K108 / Bassarab
Optical constants. V. V. Bassarab, V. A. Shalygin, A. A. Shakhmin, V. S. Sokolov, G. I. Kropotov. Spectroscopy of a borosilicate crown glass in the wavelength range of 0.2 µm–15 cm, J. Opt. 25, 065401 (2023) (see Supplementary data)
wavelength (um)	n	k
0.18503	1.50086	0.0000744323
0.72498	1.50946	0.0000000161346
1.26496	1.50261	0.0000000269033
1.70448	1.49141	0.000000255507
1.72763	1.49134	0.00000028632
1.75078	1.49121	0.000000316491
1.77393	1.49096	0.000000347359
1.79708	1.49101	0.000000386106
1.82023	1.49062	0.000000429563
1.84338	1.4909	0.000000473629
1.86652	1.49004	0.000000513106
1.88967	1.49032	0.000000558605
1.91282	1.48984	0.000000613126
1.93597	1.49001	0.00000066379
1.95912	1.49009	0.000000721775
1.98227	1.48982	0.000000794683
2.00542	1.48973	0.00000086225
2.02856	1.4896	0.000000941525
2.05171	1.48939	0.00000106037
2.07486	1.48928	0.00000127222
2.09801	1.48915	0.00000154319
2.12116	1.48908	0.00000180099
2.14431	1.48883	0.00000187304
2.16746	1.48872	0.00000198878
2.1906	1.48844	0.0000022983
2.21375	1.4884	0.00000261373
2.2369	1.4881	0.00000273286
2.26005	1.48792	0.00000272435
2.2832	1.48768	0.00000271195
2.30635	1.48724	0.00000274001
2.3295	1.48686	0.00000281751
2.35264	1.48667	0.00000298506
2.37579	1.48646	0.00000326704
2.39894	1.48619	0.00000365212
2.42209	1.48615	0.00000402992
2.44524	1.48579	0.00000438585
2.46839	1.48567	0.00000479654
2.49154	1.48536	0.00000519364
2.51468	1.48508	0.00000551483
2.53783	1.48482	0.00000579987
2.56098	1.48352	0.00000612317
2.58413	1.48291	0.0000064888
2.60728	1.48358	0.00000692518
2.63043	1.48258	0.00000741504
2.65358	1.48266	0.00000820519
2.67672	1.48193	0.00000957823
2.69987	1.4837	0.000013673
2.72302	1.49271	0.0000397965
2.74617	1.50268	0.0000830924
2.76932	1.50432	0.000106323
2.79247	1.50432	0.000108737
2.81562	1.50296	0.000105501
2.83876	1.50303	0.000101681
2.86191	1.50253	0.0000985009
2.88506	1.50174	0.0000959127
2.90821	1.50134	0.0000938237
2.93136	1.50054	0.0000921777
2.95451	1.50061	0.0000909655
2.97766	1.49929	0.0000903269
3.0008	1.4986	0.000090196
3.02395	1.49839	0.0000905818
3.0471	1.49776	0.0000914177
3.07025	1.49741	0.0000925732
3.0934	1.49709	0.0000940096
3.11655	1.4965	0.0000956284
3.1397	1.4956	0.0000973779
3.16284	1.49559	0.0000992053
3.18599	1.4948	0.000101122
3.20914	1.49439	0.000103121
3.23229	1.49389	0.000105291
3.25544	1.4935	0.000107613
3.27859	1.49291	0.000110223
3.30174	1.49254	0.000113101
3.32488	1.49181	0.000116334
3.34803	1.4922	0.000119982
3.37118	1.49282	0.000124252
3.39433	1.49377	0.000128954
3.41748	1.49786	0.000134507
3.44063	1.49358	0.000139758
3.46378	1.49083	0.00014577
3.48692	1.49091	0.000152982
3.51007	1.49296	0.000161579
3.53322	1.48804	0.000169931
3.55637	1.48719	0.000177838
3.57952	1.48631	0.000184729
3.60267	1.4854	0.000191443
3.62582	1.48432	0.000198791
3.64896	1.48394	0.000205023
3.67211	1.48387	0.000207421
3.69526	1.48216	0.000204826
3.71841	1.48172	0.000199169
3.74156	1.48012	0.000193552
3.76471	1.47953	0.000190028
3.78786	1.47889	0.000189017
3.811	1.47842	0.000190117
3.83415	1.47704	0.000192932
3.8573	1.47625	0.000196918
3.88045	1.47468	0.000202031
3.9036	1.47409	0.000207923
3.92675	1.47382	0.000214543
3.9499	1.47385	0.000221627
3.97304	1.47156	0.000229008
3.99619	1.47096	0.000236525
4.11635	1.45397	0.000285157
4.26456	1.44423	0.000414734
4.54907	1.42983	0
4.56661	1.4292	0
4.58428	1.42834	0
4.60209	1.42746	0
4.62004	1.42646	0
4.63813	1.42563	0
4.65637	1.42473	0
4.67475	1.4238	0
4.69327	1.4229	0
4.71194	1.42207	0
4.73076	1.42123	0
4.74973	1.4203	0
4.76885	1.41908	0
4.78813	1.41827	0
4.80757	1.41731	0
4.82716	1.41616	0
4.84691	1.41495	0
4.86683	1.41387	0
4.88691	1.41272	0
4.90716	1.41151	0
4.92757	1.41047	0
4.94816	1.40914	0
4.96892	1.40802	0
4.98985	1.40683	0
5.01096	1.4054	0
5.03225	1.4042	0
5.05372	1.40318	0
5.07537	1.40199	0
5.09722	1.40068	0
5.11925	1.3994	0
5.14147	1.39789	0
5.16388	1.39671	0
5.1865	1.39547	0
5.20931	1.39404	0
5.23232	1.39288	0
5.25554	1.39132	0
5.27896	1.38981	0
5.30259	1.38805	0
5.32644	1.38688	0
5.3505	1.38492	0
5.37478	1.38345	0
5.39928	1.38203	0
5.42401	1.3799	0
5.44896	1.37848	0
5.47414	1.37631	0
5.49956	1.37507	0
5.52521	1.37301	0
5.55111	1.37093	0
5.57725	1.36879	0
5.60363	1.36725	0
5.63027	1.36503	0
5.65716	1.3626	0
5.68431	1.3608	0
5.71172	1.35842	0
5.7394	1.35658	0
5.76735	1.35476	0
5.79557	1.35271	0
5.82406	1.34982	0
5.85284	1.3469	0
5.88191	1.34355	0
5.91126	1.34107	0
5.94091	1.33759	0
5.97086	1.33489	0
6.00111	1.33181	0
6.03167	1.3295	0
6.06255	1.32514	0
6.09374	1.32325	0
6.12525	1.31985	0
6.15709	1.31661	0
6.18927	1.31264	0
6.22178	1.30897	0
6.25463	1.3054	0
6.28784	1.30104	0
6.3214	1.29701	0
6.35531	1.29192	0
6.3896	1.28728	0
6.42425	1.28137	0
6.45929	1.27705	0
6.49471	1.27098	0
6.53052	1.26512	0.01753
6.56672	1.25827	0.01708
6.60333	1.25187	0.0189
6.64035	1.24456	0.0188
6.67779	1.23902	0.02016
6.71565	1.23125	0.02068
6.75395	1.22519	0.02365
6.79268	1.21819	0.02416
6.83186	1.21232	0.0265
6.8715	1.20399	0.02687
6.91159	1.1972	0.02964
6.95216	1.19013	0.03161
6.99321	1.18213	0.03418
7.03474	1.17548	0.03684
7.07677	1.16837	0.03948
7.11931	1.16254	0.04117
7.16236	1.15571	0.04066
7.20593	1.1477	0.03984
7.25004	1.1381	0.03883
7.29469	1.12639	0.03683
7.3399	1.11325	0.03602
7.38567	1.0989	0.0373
7.43201	1.0849	0.03853
7.47894	1.06995	0.0391
7.52646	1.05452	0.04121
7.57459	1.03828	0.04105
7.62335	1.0193	0.04156
7.67273	0.99699	0.04041
7.72276	0.96997	0.04041
7.77344	0.93877	0.04188
7.8248	0.90228	0.04606
7.87683	0.85963	0.05464
7.92957	0.81007	0.07172
7.98301	0.75721	0.10315
8.03718	0.70821	0.14912
8.09209	0.66966	0.20708
8.14775	0.64414	0.26987
8.20419	0.62946	0.3325
8.26141	0.62283	0.39237
8.31944	0.62152	0.44899
8.37829	0.62356	0.50261
8.43798	0.62789	0.55372
8.49852	0.63346	0.60284
8.55994	0.63941	0.65076
8.62225	0.64551	0.69841
8.68548	0.65147	0.74626
8.74964	0.65683	0.79513
8.81476	0.66123	0.84587
8.88085	0.66365	0.89977
8.94794	0.66336	0.95987
9.01605	0.66128	1.03069
9.08521	0.66122	1.11798
9.15544	0.67263	1.22648
9.22676	0.70956	1.35356
9.2992	0.7839	1.48684
9.37278	0.89611	1.60667
9.44754	1.03427	1.70037
9.52351	1.1852	1.76607
9.6007	1.34163	1.80881
9.67916	1.50346	1.83181
9.75891	1.67208	1.83438
9.83998	1.84679	1.81062
9.92241	2.02169	1.75509
10.00624	2.18761	1.66487
10.09149	2.3323	1.53975
10.17821	2.44338	1.38815
10.26643	2.51335	1.22319
10.3562	2.54143	1.06028
10.44755	2.53428	0.91245
10.54052	2.50253	0.78887
10.63516	2.45837	0.69115
10.73152	2.41191	0.61622
10.82964	2.36863	0.5582
10.92958	2.33022	0.51204
11.03137	2.29839	0.47427
11.13508	2.2723	0.43993
11.24075	2.25038	0.40719
11.34845	2.23187	0.37376
11.45824	2.214	0.33721
11.57017	2.19214	0.29705
11.6843	2.16279	0.25603
11.80072	2.12234	0.21837
11.91947	2.07231	0.19306
12.04064	2.01994	0.18558
12.1643	1.97707	0.19464
12.29052	1.9485	0.21211
12.41939	1.93494	0.22954
12.551	1.93311	0.2406
12.68542	1.93688	0.24279
12.82275	1.94201	0.23563
12.96309	1.94314	0.21915
13.10653	1.93632	0.19948
13.25319	1.92288	0.18134
13.40316	1.90568	0.1663
13.55657	1.88709	0.15534
13.71352	1.86824	0.14708
13.87416	1.84976	0.14057
14.0386	1.83236	0.13619
14.20699	1.81423	0.13181
14.37947	1.79728	0.12969
14.55618	1.78168	0.12682
14.74961	1.76962	0.13087
15.0384	1.71739	0.11099
15.33872	1.67952	0.13578
15.65129	1.65321	0.15042
15.97685	1.6343	0.15969
16.31625	1.60294	0.17139
16.67038	1.56982	0.18899
17.04023	1.52947	0.21318
17.42685	1.48545	0.25487
17.83143	1.44778	0.30729
18.25524	1.41516	0.37456
18.69969	1.39134	0.4632
19.16632	1.38334	0.57704
19.65683	1.4136	0.72551
20.17311	1.52429	0.86894
20.71724	1.69689	0.96394
21.29153	1.90152	0.99538
21.89858	2.09691	0.92751
22.54125	2.24384	0.78824
23.22279	2.30964	0.63183
23.94683	2.31325	0.4973
24.71747	2.28999	0.40041
25.53935	2.26328	0.32558
26.41778	2.22317	0.25906
27.35878	2.18393	0.22883
28.36929	2.14551	0.18894
29.45732	2.11307	0.17583
30.63213	2.08794	0.1487
31.90454	2.07735	0.15155
33.28725	2.03838	0.13705
34.79523	2.00517	0.13333
36.44632	1.9833	0.14472
38.26191	1.96753	0.14493
40.26787	1.94293	0.1504
42.49581	1.93306	0.16622
44.98472	1.91442	0.19107
47.7833	1.90955	0.20866
50.9532	1.91193	0.23396
54.57356	1.91598	0.2567
58.74774	1.91303	0.2829
63.61336	1.92319	0.30997
69.35771	1.96574	0.34053
76.24248	1.98125	0.38789
84.64471	2.02795	0.41028
95.12823	2.06424	0.41424
108.57568	2.1677	0.43638
126.45095	2.23937	0.40725
151.37192	2.27969	0.43474
188.52686	2.39358	0.45162
432.43243	2.54472	0.10197
1600	2.52566	0.03539
3134.09091	2.52057750260293	0.0256802116645816
3404.09091	2.52048495766149	0.024677699789221
3674.09091	2.52041129916614	0.0237887290632149
3944.09091	2.52035163738501	0.0229952510768178
4214.09091	2.52030257824586	0.0222828371147366
4484.09091	2.52026170443293	0.0216398069808886
4754.09091	2.5202272553576	0.0210566036763109
5024.09091	2.52019792333875	0.0205253333593753
5294.09091	2.52017272009571	0.0200394204856845
5564.09091	2.5201508871026	0.0195933453445672
5834.09091	2.52013183405323	0.0191824417370705
6104.09091	2.52011509578021	0.0188027392679113
6374.09091	2.52010030155363	0.0184508391857706
6644.09091	2.52008715284739	0.0181238157502142
6914.09091	2.52007540700063	0.0178191372263095
7184.09091	2.52006486504964	0.0175346021150667
7454.09091	2.52005536255416	0.0172682873138408
7724.09091	2.5200467626027	0.0170185056935685
7994.09091	2.52003895042337	0.0167837711649932
8264.09091	2.52003182919162	0.016562769742589
8534.09091	2.52002531673949	0.0163543354435763
8804.09091	2.52001934295102	0.0161574301090334
9074.09091	2.52001384768447	0.0159711264251946
9344.09091	2.52000877910274	0.0157945935704164
9614.09091	2.52000409232253	0.0156270850277851
9884.09091	2.51999974831435	0.0154679281928738
10154.09091	2.51999571300139	0.0153165154766149
10424.09091	2.51999195651695	0.0151722966590397
10694.09091	2.5199884525894	0.0150347722940513
10964.09091	2.51998517802997	0.0149034880009601
11234.09091	2.51998211230425	0.0147780295071233
11504.09091	2.51997923717197	0.0146580183291786
11774.09091	2.51997653638293	0.0145431079991644
12044.09091	2.51997399541918	0.0144329807571728
12314.09091	2.51997160127566	0.0143273446447677
14100	2.52	0.01447
19500	2.52	0.01215
24900	2.52	0.01084
30300	2.52	0.01
35700	2.52	0.00941
41100	2.52	0.00898
46500	2.52	0.00864
51900	2.52	0.00838
57300	2.52	0.00817
62700	2.52	0.00799
68100	2.52	0.00784
73500	2.52	0.00771
78900	2.52	0.0076
84300	2.52	0.00751
89700	2.52	0.00742
95100	2.52	0.00735
100500	2.52	0.00728
105900	2.52	0.00722
111300	2.52	0.00717
116700	2.52	0.00712
122100	2.52	0.00708
127500	2.52	0.00704
132900	2.52	0.007
138300	2.52	0.00696
143700	2.52	0.00693
149100	2.52	0.0069
