Material: main / AgGaS2 / Jansonas-o
Optical constants. G. Jansonas, R. Budriūnas, M. Vengris, A. Varanavičius. Interferometric measurements of nonlinear refractive index in the infrared spectral range, Opt. Express 30, 30507–30524 (2022)
Comments: Single crystal AgGaS2 (AGS) (o). Polar angle (θ): 39°, azimuthal angle (φ): 45°. 170 fs and 190 fs at 2.2 μm and 3.2 μm, respectively. Estimated Kerr values were 21.3e-19 and 13.6e-19 at 2.2 μm and 3.2 μm, respectively. Fourier Interferometry.
Specs: {"n2_method": "FI", "pulse_duration": "170e-15 190e-15"}
wavelength (um)	n	2
2.2	19.5e-19
3.2	19.9e-19
