Material: main / CdSe / Bond-o
Optical constants. W. L. Bond. Measurement of the refractive indices of several crystals , J. Appl. Phys. 36, 1674-1677 (1965)
Comments: Ordinary ray (o); Room temperature.
wavelength (um)	n
0.80	2.6448
0.90	2.5826
1.00	2.5502
1.20	2.5132
1.40	2.4929
1.60	2.4818
1.80	2.4732
2.00	2.4682
2.20	2.4642
2.40	2.4612
2.60	2.4590
2.80	2.4562
3.00	2.4522
3.20	2.4532
3.40	2.4518
3.60	2.4509
3.80	2.4498
4.00	2.4491
