Material: main / CdSe / Bond-e
Optical constants. W. L. Bond. Measurement of the refractive indices of several crystals , J. Appl. Phys. 36, 1674-1677 (1965)
Comments: Extraordinary ray (e); Room temperature.
wavelength (um)	n
0.80	2.6607
0.90	2.6027
1.00	2.5696
1.20	2.5331
1.40	2.5133
1.60	2.5008
1.80	2.4930
2.00	2.4873
2.20	2.4840
2.40	2.4798
2.60	2.4784
2.80	2.4757
3.00	2.4741
3.20	2.4726
3.40	2.4714
3.60	2.4702
3.80	2.4694
4.00	2.4685
