Material: main / GaAs / Hurlbut
Optical constants. W. C. Hurlbut, Y.-S. Lee, K. L. Vodopyanov, P. S. Kuo, M. M. Fejer, Multiphoton absorption and nonlinear refraction of GaAs in the mid-infrared, Opt. Lett. 32, 668 (2007)
Comments: 100 ps. Z-scan. See reference for n2(λ) in 1.3–3.5 µm range
Specs: {"n2_method": "Z-scan", "pulse_duration": "100e-12"}
wavelength (um)	n	2
2.5	9.00e-18
