Material: main / GaAs / Jansonas
Optical constants. G. Jansonas, R. Budriūnas, M. Vengris, A. Varanavičius. Interferometric measurements of nonlinear refractive index in the infrared spectral range, Opt. Express 30, 30507–30524 (2022)
Comments: Single crystal GaAs. Orientation: (100). 190 fs at 3.2 μm. Fourier Interferometry.
Specs: {"n2_method": "FI", "pulse_duration": "190e-15"}
wavelength (um)	n	2
3.2	85.6e-19
