Material: main / EuS / Meretska
Optical constants. M. L. Meretska, F. H. B. Somhorst, M. Ossiander, Y. Hou, J. Moodera, F. Capasso. Measurements of the magneto-optical properties of thin-film EuS at room temperature in the visible spectrum, Appl. Phys. Lett. 120, 251103 (2022) (Numerical data kindly provided by Frank Somhorst)
Comments: Ellipsometry sample: 100 nm thin film of electron beam evaporated EuS deposited on a 0.5 mm thick Si substrate held at room temperature. The base vacuum of the system was ~6×10-8 Torr whereas during electron-beam evaporation of EuS it was at ~2×10-6 Torr.
Specs: {"n_is_absolute": true, "wavelength_is_vacuum": true, "film_thickness": "100e-9", "substrate": "Si"}
wavelength (um)	n	k
0.190	1.984	1.063
0.193	2.039	1.042
0.196	2.082	1.020
0.199	2.118	1.000
0.202	2.150	0.982
0.205	2.181	0.964
0.208	2.211	0.946
0.211	2.240	0.927
0.214	2.268	0.906
0.217	2.294	0.882
0.220	2.317	0.857
0.223	2.338	0.830
0.226	2.354	0.802
0.229	2.368	0.775
0.232	2.377	0.748
0.235	2.384	0.724
0.238	2.388	0.702
0.241	2.391	0.683
0.244	2.394	0.666
0.247	2.397	0.652
0.250	2.400	0.640
0.253	2.400	0.631
0.256	2.397	0.633
0.259	2.408	0.658
0.262	2.464	0.682
0.265	2.548	0.655
0.268	2.603	0.578
0.271	2.608	0.498
0.274	2.591	0.441
0.277	2.575	0.403
0.280	2.562	0.371
0.283	2.550	0.341
0.286	2.537	0.312
0.289	2.523	0.286
0.292	2.508	0.262
0.295	2.492	0.241
0.298	2.476	0.222
0.301	2.459	0.205
0.304	2.443	0.191
0.307	2.427	0.178
0.310	2.412	0.167
0.313	2.398	0.157
0.316	2.384	0.149
0.319	2.370	0.142
0.322	2.358	0.135
0.325	2.346	0.129
0.328	2.334	0.124
0.331	2.324	0.120
0.334	2.313	0.116
0.337	2.304	0.112
0.340	2.294	0.109
0.343	2.286	0.106
0.346	2.277	0.103
0.349	2.269	0.101
0.352	2.262	0.099
0.355	2.254	0.097
0.358	2.247	0.095
0.361	2.241	0.093
0.364	2.234	0.091
0.367	2.228	0.090
0.370	2.222	0.089
0.373	2.216	0.087
0.376	2.210	0.086
0.379	2.204	0.085
0.382	2.199	0.084
0.385	2.194	0.084
0.388	2.188	0.083
0.391	2.183	0.082
0.394	2.178	0.082
0.397	2.173	0.082
0.400	2.168	0.082
0.403	2.164	0.082
0.406	2.159	0.083
0.409	2.155	0.084
0.412	2.150	0.084
0.415	2.146	0.085
0.418	2.142	0.087
0.421	2.139	0.088
0.424	2.135	0.090
0.427	2.132	0.091
0.430	2.129	0.093
0.433	2.126	0.095
0.436	2.124	0.098
0.439	2.122	0.100
0.442	2.120	0.102
0.445	2.119	0.104
0.448	2.117	0.107
0.451	2.116	0.109
0.454	2.116	0.111
0.457	2.115	0.114
0.460	2.115	0.116
0.463	2.116	0.118
0.466	2.116	0.120
0.469	2.117	0.122
0.472	2.118	0.123
0.475	2.119	0.125
0.478	2.120	0.126
0.481	2.121	0.127
0.484	2.123	0.128
0.487	2.125	0.129
0.490	2.126	0.129
0.493	2.128	0.129
0.496	2.130	0.129
0.499	2.132	0.129
0.502	2.134	0.129
0.505	2.136	0.128
0.508	2.138	0.128
0.511	2.140	0.127
0.514	2.142	0.125
0.517	2.144	0.124
0.520	2.145	0.123
0.523	2.147	0.121
0.526	2.149	0.119
0.529	2.150	0.117
0.532	2.152	0.115
0.535	2.153	0.113
0.538	2.154	0.111
0.541	2.155	0.109
0.544	2.156	0.107
0.547	2.157	0.104
0.550	2.157	0.102
0.553	2.158	0.099
0.556	2.158	0.097
0.559	2.159	0.094
0.562	2.159	0.092
0.565	2.159	0.089
0.568	2.159	0.087
0.571	2.159	0.084
0.574	2.159	0.082
0.577	2.159	0.079
0.580	2.158	0.077
0.583	2.158	0.075
0.586	2.157	0.072
0.589	2.156	0.070
0.592	2.156	0.068
0.595	2.155	0.066
0.598	2.154	0.063
0.601	2.153	0.061
0.604	2.152	0.059
0.607	2.151	0.057
0.610	2.150	0.055
0.613	2.149	0.054
0.616	2.148	0.052
0.619	2.147	0.050
0.622	2.145	0.048
0.625	2.144	0.047
0.628	2.143	0.045
0.631	2.142	0.044
0.634	2.140	0.042
0.637	2.139	0.041
0.640	2.138	0.040
0.643	2.136	0.038
0.646	2.135	0.037
0.649	2.134	0.036
0.652	2.132	0.035
0.655	2.131	0.034
0.658	2.130	0.033
0.661	2.128	0.032
0.664	2.127	0.031
0.667	2.126	0.030
0.670	2.125	0.029
0.673	2.123	0.029
0.676	2.122	0.028
0.679	2.121	0.027
0.682	2.119	0.027
0.685	2.118	0.026
0.688	2.117	0.026
0.691	2.116	0.025
0.694	2.115	0.024
0.697	2.114	0.024
0.700	2.112	0.024
0.703	2.111	0.023
0.706	2.110	0.023
0.709	2.109	0.022
0.712	2.108	0.022
0.715	2.107	0.022
0.718	2.106	0.021
0.721	2.105	0.021
0.724	2.104	0.021
0.727	2.103	0.021
0.730	2.102	0.020
0.733	2.101	0.020
0.736	2.100	0.020
0.739	2.100	0.020
0.742	2.099	0.020
0.745	2.098	0.020
0.748	2.097	0.019
0.751	2.096	0.019
0.754	2.095	0.019
0.757	2.095	0.019
0.760	2.094	0.019
0.763	2.093	0.019
0.766	2.093	0.019
0.769	2.092	0.019
0.772	2.091	0.019
0.775	2.091	0.019
0.778	2.090	0.019
0.781	2.089	0.018
0.784	2.089	0.018
0.787	2.088	0.018
0.790	2.088	0.018
0.793	2.087	0.018
0.796	2.086	0.018
0.799	2.086	0.018
0.802	2.085	0.018
0.805	2.085	0.018
0.808	2.084	0.018
0.811	2.084	0.018
0.814	2.083	0.018
0.817	2.083	0.018
0.820	2.082	0.018
0.823	2.082	0.018
0.826	2.082	0.018
0.829	2.081	0.018
0.832	2.081	0.018
0.835	2.080	0.018
0.838	2.080	0.018
0.841	2.080	0.018
0.844	2.079	0.018
0.847	2.079	0.018
0.850	2.078	0.018
0.853	2.078	0.018
0.856	2.078	0.018
0.859	2.077	0.018
0.862	2.077	0.018
0.865	2.077	0.018
0.868	2.077	0.018
0.871	2.076	0.018
0.874	2.076	0.018
0.877	2.076	0.017
0.880	2.075	0.017
0.883	2.075	0.017
0.886	2.075	0.017
0.889	2.074	0.017
0.892	2.074	0.017
0.895	2.074	0.017
0.898	2.074	0.017
0.901	2.073	0.017
0.904	2.073	0.017
0.907	2.073	0.017
0.910	2.073	0.017
0.913	2.072	0.017
0.916	2.072	0.017
0.919	2.072	0.017
0.922	2.072	0.017
0.925	2.072	0.017
0.928	2.071	0.017
0.931	2.071	0.017
0.934	2.071	0.017
0.937	2.071	0.016
0.940	2.070	0.016
0.943	2.070	0.016
0.946	2.070	0.016
0.949	2.070	0.016
0.952	2.070	0.016
0.955	2.069	0.016
0.958	2.069	0.016
0.961	2.069	0.016
0.964	2.069	0.016
0.967	2.069	0.016
0.970	2.069	0.016
0.973	2.068	0.016
0.976	2.068	0.016
0.979	2.068	0.015
0.982	2.068	0.015
0.985	2.068	0.015
0.988	2.067	0.015
0.991	2.067	0.015
0.994	2.067	0.015
0.997	2.067	0.015
1.0000	2.067	0.015
1.0075	2.066	0.015
1.0150	2.066	0.015
1.0225	2.066	0.014
1.0300	2.065	0.014
1.0375	2.065	0.014
1.0450	2.064	0.014
1.0525	2.064	0.013
1.0600	2.064	0.013
1.0675	2.063	0.013
1.0750	2.063	0.013
1.0825	2.063	0.013
1.0900	2.062	0.012
1.0975	2.062	0.012
1.1050	2.062	0.012
1.1125	2.061	0.012
1.1200	2.061	0.012
1.1275	2.061	0.011
1.1350	2.060	0.011
1.1425	2.060	0.011
1.1500	2.060	0.011
1.1575	2.059	0.011
1.1650	2.059	0.010
1.1725	2.059	0.010
1.1800	2.059	0.010
1.1875	2.058	0.010
1.1950	2.058	0.010
1.2025	2.058	0.009
1.2100	2.057	0.009
1.2175	2.057	0.009
1.2250	2.057	0.009
1.2325	2.056	0.009
1.2400	2.056	0.009
1.2475	2.056	0.008
1.2550	2.056	0.008
1.2625	2.055	0.008
1.2700	2.055	0.008
1.2775	2.055	0.008
1.2850	2.055	0.008
1.2925	2.054	0.008
1.3000	2.054	0.007
1.3075	2.054	0.007
1.3150	2.054	0.007
1.3225	2.053	0.007
1.3300	2.053	0.007
1.3375	2.053	0.007
1.3450	2.053	0.007
1.3525	2.052	0.006
1.3600	2.052	0.006
1.3675	2.052	0.006
1.3750	2.052	0.006
1.3825	2.051	0.006
1.3900	2.051	0.006
1.3975	2.051	0.006
1.4050	2.051	0.006
1.4125	2.051	0.006
1.4200	2.050	0.005
1.4275	2.050	0.005
1.4350	2.050	0.005
1.4425	2.050	0.005
1.4500	2.050	0.005
1.4575	2.049	0.005
1.4650	2.049	0.005
1.4725	2.049	0.005
1.4800	2.049	0.005
1.4875	2.049	0.005
1.4950	2.048	0.005
1.5025	2.048	0.004
1.5100	2.048	0.004
1.5175	2.048	0.004
1.5250	2.048	0.004
1.5325	2.047	0.004
1.5400	2.047	0.004
1.5475	2.047	0.004
1.5550	2.047	0.004
1.5625	2.047	0.004
1.5700	2.047	0.004
1.5775	2.046	0.004
1.5850	2.046	0.004
1.5925	2.046	0.004
1.6000	2.046	0.004
1.6075	2.046	0.003
1.6150	2.046	0.003
1.6225	2.045	0.003
1.6300	2.045	0.003
1.6375	2.045	0.003
1.6450	2.045	0.003
1.6525	2.045	0.003
1.6600	2.045	0.003
1.6675	2.045	0.003
1.6750	2.044	0.003
1.6825	2.044	0.003
1.6900	2.044	0.003
1.6975	2.044	0.003
