Material: main / AlPO4 / Bond-e
Optical constants. W. L. Bond. Measurement of the refractive indices of several crystals , J. Appl. Phys. 36, 1674-1677 (1965)
Comments: Extraordinary ray (e); Room temperature.
wavelength (um)	n
0.40	1.5465
0.50	1.5385
0.60	1.5334
0.70	1.5301
0.80	1.5281
1.00	1.5245
1.20	1.5223
1.40	1.5198
1.60	1.5174
1.80	1.5145
2.00	1.5116
2.20	1.5083
2.40	1.5048
2.60	1.5006
