Material: main / AlPO4 / Bond-o
Optical constants. W. L. Bond. Measurement of the refractive indices of several crystals , J. Appl. Phys. 36, 1674-1677 (1965)
Comments: Ordinary ray (o); Room temperature.
wavelength (um)	n
0.40	1.5369
0.50	1.5287
0.60	1.5243
0.70	1.5215
0.80	1.5192
1.00	1.5161
1.20	1.5136
1.40	1.5112
1.60	1.5088
1.80	1.5062
2.00	1.5034
2.20	1.5001
2.40	1.4969
2.60	1.4928
