Material: schott / BK7 / Lane
Optical constants. D. W. Lane. The optical properties and laser irradiation of some common glasses, J. Phys. D: Appl. Phys. 23, 1727 (1990)
wavelength (um)	n	k
5.0000	1.3995	0.0369
5.0150	1.3991	0.0358
5.0302	1.3991	0.0346
5.0454	1.3998	0.0333
5.0607	1.3986	0.0319
5.0761	1.3938	0.0307
5.0916	1.3936	0.0298
5.1073	1.3928	0.0292
5.1230	1.3889	0.0287
5.1387	1.3871	0.0284
5.1546	1.3878	0.0280
5.1706	1.3879	0.0275
5.1867	1.3875	0.0269
5.2029	1.3875	0.0264
5.2192	1.3882	0.0262
5.2356	1.3856	0.0261
5.2521	1.3821	0.0261
5.2687	1.3814	0.0263
5.2854	1.3819	0.0266
5.3022	1.3817	0.0270
5.3191	1.3822	0.0272
5.3362	1.3814	0.0269
5.3533	1.3766	0.0260
5.3706	1.3755	0.0248
5.3879	1.3761	0.0241
5.4054	1.3759	0.0242
5.4230	1.3764	0.0244
5.4407	1.3759	0.0238
5.4585	1.3722	0.0226
5.4765	1.3699	0.0212
5.4945	1.3703	0.0200
5.5127	1.3680	0.0190
5.5310	1.3639	0.0184
5.5494	1.3606	0.0181
5.5679	1.3561	0.0180
5.5866	1.3529	0.0181
5.6054	1.3530	0.0182
5.6243	1.3532	0.0183
5.6433	1.3531	0.0184
5.6625	1.3536	0.0184
5.6818	1.3517	0.0184
5.7013	1.3479	0.0184
5.7208	1.3467	0.0185
5.7405	1.3476	0.0186
5.7604	1.3479	0.0186
5.7803	1.3451	0.0185
5.8005	1.3416	0.0183
5.8207	1.3416	0.0179
5.8411	1.3409	0.0174
5.8617	1.3371	0.0169
5.8824	1.3315	0.0164
5.9032	1.3307	0.0160
5.9242	1.3306	0.0159
5.9453	1.3240	0.0160
5.9666	1.3183	0.0165
5.9880	1.3189	0.0173
6.0096	1.3170	0.0181
6.0314	1.3132	0.0188
6.0533	1.3128	0.0193
6.0753	1.3133	0.0193
6.0976	1.3132	0.0188
6.1200	1.3133	0.0176
6.1425	1.3122	0.0160
6.1652	1.3079	0.0143
6.1881	1.3001	0.0129
6.2112	1.2956	0.0120
6.2344	1.2963	0.0115
6.2578	1.2937	0.0113
6.2814	1.2904	0.0114
6.3052	1.2911	0.0116
6.3291	1.2869	0.0119
6.3532	1.2779	0.0121
6.3776	1.2746	0.0119
6.4020	1.2717	0.0114
6.4267	1.2680	0.0109
6.4516	1.2644	0.0111
6.4767	1.2610	0.0127
6.5020	1.2560	0.0147
6.5274	1.2488	0.0142
6.5531	1.2431	0.0129
6.5789	1.2401	0.0128
6.6050	1.2376	0.0138
6.6313	1.2321	0.0152
6.6578	1.2231	0.0163
6.6845	1.2194	0.0169
6.7114	1.2154	0.0169
6.7385	1.2080	0.0167
6.7659	1.2004	0.0178
6.7935	1.1940	0.0220
6.8213	1.1898	0.0258
6.8493	1.1861	0.0275
6.8776	1.1829	0.0283
6.9061	1.1797	0.0286
6.9348	1.1736	0.0292
6.9638	1.1665	0.0319
6.9930	1.1625	0.0358
7.0225	1.1553	0.0394
7.0522	1.1495	0.0411
7.0822	1.1497	0.0432
7.1124	1.1486	0.0451
7.1429	1.1445	0.0454
7.1736	1.1413	0.0450
7.2046	1.1364	0.0444
7.2359	1.1271	0.0438
7.2674	1.1197	0.0434
7.2993	1.1137	0.0433
7.3314	1.1067	0.0434
7.3638	1.0947	0.0437
7.3964	1.0826	0.0439
7.4294	1.0755	0.0439
7.4627	1.0689	0.0438
7.4963	1.0586	0.0437
7.5301	1.0439	0.0435
7.5643	1.0317	0.0434
7.5988	1.0236	0.0434
7.6336	1.0084	0.0436
7.6687	0.9905	0.0439
7.7042	0.9704	0.0443
7.7399	0.9467	0.0446
7.7760	0.9237	0.0443
7.8125	0.9004	0.0444
7.8493	0.8779	0.0487
7.8864	0.8460	0.0575
7.9239	0.8018	0.0671
7.9618	0.7649	0.0807
8.0000	0.7258	0.0997
8.0386	0.6861	0.1344
8.0775	0.6644	0.1789
8.1169	0.6405	0.2240
8.1566	0.6190	0.2761
8.1967	0.6076	0.3256
8.2372	0.6064	0.3758
8.2781	0.6084	0.4225
8.3195	0.6118	0.4665
8.3612	0.6199	0.5059
8.4034	0.6254	0.5434
8.4459	0.6291	0.5821
8.4890	0.6348	0.6180
8.5324	0.6412	0.6471
8.5763	0.6480	0.6770
8.6207	0.6551	0.7106
8.6655	0.6629	0.7395
8.7108	0.6685	0.7712
8.7566	0.6681	0.8052
8.8028	0.6701	0.8406
8.8496	0.6743	0.8786
8.8968	0.6743	0.9215
8.9445	0.6734	0.9681
8.9928	0.6737	1.0133
9.0416	0.6766	1.0806
9.0909	0.6809	1.1395
9.1408	0.6875	1.2196
9.1912	0.7063	1.3154
9.2421	0.7472	1.4070
9.2937	0.8023	1.5114
9.3458	0.9076	1.5948
9.3985	0.9998	1.6726
9.4518	1.0942	1.7229
9.5057	1.2237	1.7665
9.5602	1.3372	1.7935
9.6154	1.4697	1.8110
9.6712	1.5746	1.8162
9.7276	1.6900	1.8100
9.7847	1.8334	1.7927
9.8425	1.9525	1.7620
9.9010	2.0654	1.6926
9.9602	2.1767	1.6341
10.020	2.2613	1.5331
10.081	2.3478	1.4425
10.142	2.4178	1.3583
10.204	2.4740	1.2231
10.267	2.5040	1.1269
10.331	2.5109	1.0140
10.395	2.5058	0.9116
10.460	2.4818	0.8295
10.526	2.4628	0.7322
10.593	2.4121	0.6653
10.661	2.3817	0.6115
10.730	2.3465	0.5702
10.799	2.3149	0.5346
10.870	2.2926	0.5049
10.941	2.2679	0.4779
11.013	2.2498	0.4524
11.086	2.2370	0.4289
11.161	2.2197	0.4069
11.236	2.2070	0.3848
11.312	2.1941	0.3606
11.390	2.1807	0.3349
11.468	2.1684	0.3094
11.547	2.1547	0.2849
11.628	2.1315	0.2604
11.710	2.1143	0.2336
11.792	2.0888	0.2068
11.876	2.0473	0.1881
11.962	2.0244	0.1771
12.048	1.9837	0.1727
12.136	1.9526	0.1756
12.225	1.9313	0.1825
12.315	1.9162	0.1916
12.407	1.9073	0.2016
12.500	1.9046	0.2095
12.594	1.9010	0.2127
12.690	1.8981	0.2126
12.788	1.8983	0.2089
12.887	1.8972	0.2018
12.987	1.8929	0.1908
13.089	1.8851	0.1769
13.193	1.8729	0.1671
13.298	1.8598	0.1633
13.405	1.8465	0.1606
13.514	1.8329	0.1547
13.624	1.8256	0.1481
13.736	1.8175	0.1477
13.850	1.7994	0.1469
13.966	1.7870	0.1401
14.085	1.7746	0.1358
14.205	1.7582	0.1361
14.327	1.7414	0.1404
14.451	1.7296	0.1471
14.577	1.7213	0.1535
14.706	1.7084	0.1568
14.837	1.6980	0.1575
14.970	1.6917	0.1576
15.106	1.6847	0.1577
15.244	1.6696	0.1588
15.385	1.6528	0.1615
15.528	1.6404	0.1671
15.674	1.6271	0.1759
15.823	1.6168	0.1868
15.974	1.6096	0.1948
16.129	1.5992	0.2004
16.287	1.5814	0.2070
16.447	1.5655	0.2198
16.611	1.5608	0.2325
16.779	1.5569	0.2394
16.949	1.5340	0.2454
17.123	1.5213	0.2543
17.301	1.5007	0.2717
17.483	1.4814	0.2914
17.668	1.4643	0.3130
17.857	1.4492	0.3419
18.051	1.4362	0.3760
18.248	1.4232	0.4113
18.450	1.4146	0.4492
18.657	1.4112	0.4931
18.868	1.4174	0.5405
19.084	1.4267	0.5941
19.305	1.4414	0.6518
19.531	1.4721	0.7074
19.763	1.5071	0.7652
20.000	1.5659	0.8311
20.243	1.6285	0.8907
20.492	1.6878	0.9344
20.747	1.7725	0.9529
21.008	1.8530	0.9592
21.277	1.9434	0.9511
21.552	2.0545	0.9293
21.834	2.1079	0.8925
22.124	2.1726	0.8347
22.422	2.2409	0.7729
22.727	2.2672	0.7038
23.041	2.2960	0.6335
23.364	2.3050	0.5727
23.697	2.3084	0.5183
24.038	2.3059	0.4693
24.390	2.3004	0.4283
24.752	2.2932	0.3919
25.126	2.2857	0.3568
25.510	2.2722	0.3201
25.907	2.2565	0.2894
26.316	2.2435	0.2644
26.738	2.2256	0.2413
27.174	2.2024	0.2194
27.624	2.1892	0.1993
28.090	2.1735	0.1833
28.571	2.1565	0.1699
29.070	2.1355	0.1582
29.586	2.1171	0.1484
30.120	2.1041	0.1412
30.675	2.0872	0.1377
31.250	2.0745	0.1380
31.847	2.0568	0.1409
32.468	2.0442	0.1449
33.113	2.0377	0.1481
