Material: main / Au / Magnozzi-25C
Optical constants. M. Magnozzi, M. Ferrera, L. Mattera, M. Canepa, F. Bisio. Plasmonics of Au nanoparticles in a hot thermodynamic bath, Nanoscale, 11, 1140–1146 (2019) (Numerical data kindly provided by Michele Magnozzi)
Comments: Optically-thick and morphologically-flat Au film at 25 °C.
Specs: {"n_is_absolute": true, "wavelength_is_vacuum": true, "temperature": "25 °C"}
wavelength (um)	n	k
0.25157	1.284522	1.610157
0.25475	1.289887	1.656333
0.25793	1.297019	1.685505
0.26112	1.312810	1.720060
0.26430	1.327327	1.749004
0.26749	1.343947	1.778991
0.27067	1.362943	1.806386
0.27386	1.385583	1.832906
0.27704	1.411681	1.857638
0.28023	1.439553	1.873754
0.28341	1.463878	1.886543
0.28660	1.483892	1.897467
0.28978	1.506296	1.904639
0.29297	1.522234	1.919999
0.29616	1.547837	1.918812
0.29934	1.565352	1.921715
0.30253	1.579218	1.926624
0.30572	1.592230	1.931955
0.30890	1.605731	1.936468
0.31209	1.620166	1.939298
0.31528	1.635310	1.939913
0.31847	1.650713	1.938071
0.32166	1.665605	1.933763
0.32484	1.679229	1.927179
0.32803	1.690889	1.918660
0.33122	1.700021	1.908655
0.33441	1.706225	1.897693
0.33760	1.709280	1.886378
0.34079	1.709177	1.875218
0.34398	1.706049	1.864816
0.34717	1.700200	1.855690
0.35036	1.692067	1.848286
0.35355	1.682184	1.842953
0.35674	1.671145	1.839916
0.35993	1.659559	1.839270
0.36312	1.648012	1.840969
0.36631	1.637029	1.844829
0.36950	1.627032	1.850551
0.37269	1.618326	1.857736
0.37588	1.611060	1.865947
0.37907	1.605314	1.874638
0.38226	1.600973	1.883344
0.38545	1.597841	1.891612
0.38864	1.595646	1.899052
0.39184	1.594067	1.905356
0.39503	1.592765	1.910315
0.39822	1.591413	1.913821
0.40141	1.589714	1.915871
0.40460	1.587442	1.916537
0.40779	1.584428	1.915994
0.41099	1.580583	1.914460
0.41418	1.575889	1.912189
0.41737	1.570397	1.909434
0.42056	1.564183	1.906407
0.42375	1.557405	1.903290
0.42694	1.550159	1.900144
0.43014	1.542521	1.896935
0.43333	1.534472	1.893501
0.43652	1.525975	1.889606
0.43971	1.516806	1.884899
0.44291	1.506655	1.879007
0.44610	1.495114	1.871580
0.44929	1.481670	1.862341
0.45248	1.465929	1.851288
0.45567	1.447442	1.838608
0.45887	1.425938	1.824839
0.46206	1.401282	1.810807
0.46525	1.373823	1.797692
0.46844	1.343880	1.786482
0.47164	1.311804	1.777588
0.47483	1.277350	1.769875
0.47802	1.238471	1.759179
0.48121	1.189890	1.736265
0.48440	1.144302	1.736009
0.48760	1.079774	1.738931
0.49079	1.011442	1.744980
0.49398	0.955612	1.755039
0.49717	0.900388	1.770504
0.50036	0.835603	1.798934
0.50356	0.767130	1.834243
0.50675	0.707640	1.877222
0.50994	0.659045	1.920112
0.51313	0.619764	1.965665
0.51632	0.583199	2.012680
0.51951	0.544985	2.063012
0.52271	0.506651	2.113171
0.52590	0.476172	2.160979
0.52909	0.453925	2.213234
0.53228	0.434186	2.265850
0.53547	0.413271	2.314471
0.53866	0.391228	2.359578
0.54185	0.371240	2.401956
0.54504	0.353649	2.447018
0.54823	0.339950	2.491676
0.55142	0.329217	2.540817
0.55461	0.319851	2.588014
0.55780	0.306739	2.628919
0.56099	0.293758	2.664873
0.56418	0.282125	2.701650
0.56737	0.272752	2.740905
0.57056	0.265629	2.786241
0.57375	0.258414	2.831796
0.57694	0.251577	2.872737
0.58013	0.243136	2.910237
0.58332	0.236663	2.941930
0.58651	0.227431	2.974251
0.58970	0.220536	3.010507
0.59289	0.216413	3.052136
0.59607	0.211688	3.090595
0.59926	0.207365	3.131577
0.60245	0.203450	3.168488
0.60564	0.195360	3.202859
0.60882	0.191029	3.228444
0.61201	0.185331	3.263398
0.61520	0.181463	3.295161
0.61839	0.179270	3.334331
0.62157	0.175644	3.371302
0.62476	0.173615	3.410164
0.62794	0.167898	3.444633
0.63113	0.164588	3.477125
0.63432	0.160351	3.503965
0.63750	0.158269	3.532485
0.64069	0.154020	3.559886
0.64387	0.150984	3.593806
0.64706	0.149365	3.632087
0.65024	0.146374	3.667756
0.65342	0.143667	3.704715
0.65661	0.140863	3.738857
0.65979	0.138266	3.769203
0.66297	0.135901	3.799028
0.66616	0.134894	3.823083
0.66934	0.131347	3.852699
0.67252	0.129600	3.885193
0.67570	0.128254	3.916278
0.67889	0.126860	3.951335
0.68207	0.127830	3.991318
0.68525	0.126803	4.024561
0.68843	0.127072	4.054398
0.69161	0.126962	4.084581
0.69479	0.123229	4.111432
0.69797	0.126175	4.138240
0.70115	0.123955	4.166524
0.70433	0.122276	4.195071
0.70751	0.124982	4.224716
0.71069	0.123918	4.254848
0.71386	0.125132	4.291328
0.71704	0.126667	4.321040
0.72022	0.126424	4.348020
0.72340	0.125025	4.382685
0.72657	0.123430	4.409254
0.72975	0.125709	4.436975
0.73292	0.125524	4.467252
0.73610	0.127427	4.485702
0.73928	0.126587	4.516528
0.74245	0.125878	4.540982
0.74562	0.126072	4.571230
0.74880	0.124852	4.600722
0.75197	0.124741	4.629221
0.75515	0.125046	4.662561
0.75832	0.125401	4.694241
0.76149	0.125824	4.723664
0.76466	0.126368	4.748828
0.76783	0.126918	4.774056
0.77100	0.127509	4.797977
0.77418	0.127894	4.830040
0.77735	0.128740	4.844844
0.78052	0.129195	4.874609
0.78368	0.129748	4.900762
0.78685	0.130431	4.922387
0.79002	0.130784	4.956704
0.79319	0.131440	4.979767
0.79636	0.131774	5.015277
0.79952	0.132536	5.034569
0.80269	0.132865	5.070697
0.80586	0.133589	5.091968
0.80902	0.133924	5.128098
0.81219	0.134720	5.146968
0.81535	0.135363	5.171711
0.81852	0.135831	5.203467
0.82168	0.136549	5.225640
0.82484	0.137408	5.242645
0.82800	0.137875	5.274761
0.83117	0.138846	5.287916
0.83433	0.139307	5.320545
0.83749	0.139911	5.347852
0.84065	0.140663	5.369683
0.84381	0.141136	5.402272
0.84697	0.141720	5.430764
0.85013	0.142239	5.461906
0.85329	0.142875	5.488643
0.85644	0.143156	5.529035
0.85960	0.144061	5.545681
0.86276	0.144666	5.574017
0.86591	0.145888	5.578564
0.86907	0.146410	5.610272
0.87222	0.147024	5.638387
0.87538	0.147731	5.663217
0.87853	0.148495	5.685775
0.88168	0.149148	5.712707
0.88484	0.149805	5.739721
0.88799	0.151025	5.745187
0.89114	0.151468	5.780355
0.89429	0.151914	5.815573
0.89744	0.152794	5.834237
0.90059	0.153506	5.859421
0.90374	0.153811	5.900278
0.90689	0.154777	5.915897
0.91004	0.155569	5.938278
0.91318	0.156033	5.973092
0.91633	0.156618	6.003524
0.91948	0.157779	6.012010
0.92262	0.158523	6.036323
0.92577	0.159212	6.062966
0.92891	0.160252	6.076178
0.93205	0.160931	6.103189
0.93519	0.161532	6.133198
0.93834	0.162127	6.163700
0.94148	0.162954	6.185248
0.94462	0.163607	6.213461
0.94776	0.164604	6.228708
0.95090	0.165381	6.252341
0.95404	0.166338	6.269228
0.95717	0.166460	6.317564
0.96031	0.167372	6.336232
0.96345	0.167912	6.369069
0.96658	0.168664	6.393738
0.96972	0.169436	6.417862
0.97285	0.170558	6.428638
0.97599	0.171108	6.461239
0.97912	0.171665	6.493494
0.98225	0.172975	6.497365
0.98538	0.173747	6.521562
0.98851	0.174461	6.547992
0.99164	0.175259	6.571337
0.99477	0.175743	6.606501
0.99790	0.177067	6.610192
1.0117	0.180276	6.725525
1.0185	0.181866	6.782345
1.0254	0.183788	6.828657
1.0322	0.185664	6.875261
1.0390	0.187269	6.932062
1.0459	0.188918	6.989115
1.0527	0.190689	7.040176
1.0595	0.192577	7.087104
1.0664	0.194168	7.146879
1.0732	0.195833	7.202429
1.0800	0.197328	7.264404
1.0869	0.199142	7.316570
1.0937	0.201371	7.352019
1.1005	0.203313	7.398265
1.1074	0.204870	7.460446
1.1142	0.206661	7.512620
1.1210	0.208750	7.554195
1.1278	0.210445	7.610290
1.1347	0.212401	7.658928
1.1415	0.214054	7.716997
1.1483	0.216323	7.753192
1.1551	0.217788	7.818486
1.1620	0.219400	7.880493
1.1688	0.221469	7.924643
1.1756	0.223104	7.984600
1.1824	0.224714	8.045747
1.1893	0.227305	8.073943
1.1961	0.229350	8.120195
1.2029	0.231319	8.169472
1.2097	0.233121	8.224989
1.2166	0.235469	8.263361
1.2234	0.237445	8.313442
1.2302	0.239252	8.369781
1.2370	0.240954	8.430118
1.2439	0.242721	8.490336
1.2507	0.244685	8.542249
1.2575	0.246537	8.598464
1.2643	0.248437	8.653354
1.2712	0.251470	8.671246
1.2780	0.254046	8.703784
1.2848	0.255366	8.779923
1.2917	0.257392	8.834017
1.2985	0.259502	8.883900
1.3053	0.261785	8.928357
1.3122	0.264107	8.973811
1.3190	0.266175	9.026588
1.3258	0.267838	9.093584
1.3327	0.270136	9.141396
1.3395	0.272512	9.185270
1.3464	0.275240	9.219787
1.3532	0.276573	9.299856
1.3601	0.279230	9.337887
1.3669	0.281717	9.380387
1.3738	0.284020	9.431547
1.3806	0.286346	9.480646
1.3875	0.287344	9.576304
1.3943	0.291317	9.572153
1.4012	0.292972	9.647122
1.4080	0.295149	9.703651
1.4149	0.298409	9.727260
1.4218	0.300160	9.800925
1.4286	0.302651	9.849204
1.4355	0.306095	9.869305
1.4424	0.307303	9.962439
1.4492	0.310090	10.00330
