Material: main / Au / Magnozzi-225C
Optical constants. M. Magnozzi, M. Ferrera, L. Mattera, M. Canepa, F. Bisio. Plasmonics of Au nanoparticles in a hot thermodynamic bath, Nanoscale, 11, 1140–1146 (2019) (Numerical data kindly provided by Michele Magnozzi)
Comments: Optically-thick and morphologically-flat Au film at 225 °C.
Specs: {"n_is_absolute": true, "wavelength_is_vacuum": true, "temperature": "225 °C"}
wavelength (um)	n	k
0.25157	1.291310	1.615922
0.25475	1.289772	1.673988
0.25793	1.307039	1.693448
0.26112	1.326316	1.716883
0.26430	1.339480	1.745210
0.26749	1.352215	1.778697
0.27067	1.367674	1.804861
0.27386	1.387862	1.830331
0.27704	1.408074	1.858369
0.28023	1.431931	1.878775
0.28341	1.454823	1.897856
0.28660	1.476091	1.913236
0.28978	1.499872	1.926328
0.29297	1.520014	1.937513
0.29616	1.546134	1.942600
0.29934	1.566010	1.946631
0.30253	1.582539	1.950093
0.30572	1.597658	1.953122
0.30890	1.612329	1.955580
0.31209	1.626973	1.957215
0.31528	1.641554	1.957745
0.31847	1.655916	1.956927
0.32166	1.669621	1.954589
0.32484	1.682224	1.950666
0.32803	1.693295	1.945206
0.33122	1.702460	1.938366
0.33441	1.709435	1.930401
0.33760	1.714024	1.921681
0.34079	1.716183	1.912550
0.34398	1.715928	1.903468
0.34717	1.713395	1.894882
0.35036	1.708809	1.887217
0.35355	1.702473	1.880853
0.35674	1.694745	1.876099
0.35993	1.686019	1.873174
0.36312	1.676702	1.872188
0.36631	1.667190	1.873138
0.36950	1.657847	1.875904
0.37269	1.648982	1.880263
0.37588	1.640810	1.885921
0.37907	1.633539	1.892465
0.38226	1.627218	1.899496
0.38545	1.621836	1.906589
0.38864	1.617313	1.913344
0.39184	1.613501	1.919406
0.39503	1.610213	1.924489
0.39822	1.607227	1.928392
0.40141	1.604304	1.931009
0.40460	1.601234	1.932307
0.40779	1.597800	1.932367
0.41099	1.593820	1.931335
0.41418	1.589151	1.929411
0.41737	1.583687	1.926825
0.42056	1.577340	1.923799
0.42375	1.570118	1.920559
0.42694	1.561993	1.917239
0.43014	1.552972	1.913906
0.43333	1.543022	1.910513
0.43652	1.532185	1.906945
0.43971	1.520373	1.902966
0.44291	1.507473	1.898293
0.44610	1.493312	1.892636
0.44929	1.477602	1.885745
0.45248	1.460154	1.877580
0.45567	1.440606	1.868266
0.45887	1.418650	1.858243
0.46206	1.393957	1.848240
0.46525	1.366555	1.839331
0.46844	1.336424	1.832510
0.47164	1.303816	1.828338
0.47483	1.269116	1.826051
0.47802	1.232451	1.822164
0.48121	1.193583	1.808388
0.48440	1.148273	1.811730
0.48760	1.094745	1.819874
0.49079	1.037535	1.831224
0.49398	0.991585	1.839875
0.49717	0.946714	1.854257
0.50036	0.890483	1.876430
0.50356	0.831476	1.905752
0.50675	0.780243	1.940602
0.50994	0.733421	1.973644
0.51313	0.696031	2.010288
0.51632	0.657646	2.047162
0.51951	0.617367	2.090830
0.52271	0.578246	2.136346
0.52590	0.543776	2.179289
0.52909	0.517929	2.227398
0.53228	0.493876	2.275204
0.53547	0.469648	2.319975
0.53866	0.443834	2.365996
0.54185	0.420611	2.407574
0.54504	0.402335	2.451282
0.54823	0.386650	2.496189
0.55142	0.373860	2.544998
0.55461	0.361183	2.591429
0.55780	0.345847	2.630831
0.56099	0.330868	2.671216
0.56418	0.319898	2.707681
0.56737	0.308715	2.749177
0.57056	0.301925	2.794225
0.57375	0.291683	2.841057
0.57694	0.286706	2.880293
0.58013	0.276165	2.917711
0.58332	0.267723	2.951692
0.58651	0.258430	2.987425
0.58970	0.248235	3.023701
0.59289	0.248196	3.065885
0.59607	0.241276	3.102916
0.59926	0.235030	3.145710
0.60245	0.233662	3.179980
0.60564	0.229053	3.215696
0.60882	0.221352	3.240418
0.61201	0.215744	3.277036
0.61520	0.209467	3.306418
0.61839	0.208156	3.347911
0.62157	0.204871	3.384401
0.62476	0.201123	3.424402
0.62794	0.195087	3.458429
0.63113	0.192763	3.491846
0.63432	0.188126	3.518170
0.63750	0.183443	3.545528
0.64069	0.183812	3.572806
0.64387	0.180941	3.608538
0.64706	0.174397	3.646616
0.65024	0.171021	3.684199
0.65342	0.171898	3.717895
0.65661	0.169278	3.752253
0.65979	0.166253	3.784531
0.66297	0.167270	3.814366
0.66616	0.163949	3.838735
0.66934	0.152512	3.872555
0.67252	0.156271	3.904119
0.67570	0.154789	3.937264
0.67889	0.152769	3.971758
0.68207	0.155130	4.010135
0.68525	0.154937	4.042661
0.68843	0.155702	4.072687
0.69161	0.158876	4.104819
0.69479	0.149701	4.133199
0.69797	0.158041	4.160882
0.70115	0.157392	4.187387
0.70433	0.148806	4.218562
0.70751	0.158072	4.245071
0.71069	0.154981	4.276590
0.71386	0.156255	4.314397
0.71704	0.162969	4.345107
0.72022	0.157893	4.366313
0.72340	0.154403	4.406678
0.72657	0.157487	4.427883
0.72975	0.153315	4.458302
0.73292	0.157692	4.490772
0.73610	0.158694	4.505005
0.73928	0.157535	4.540546
0.74245	0.152134	4.560982
0.74562	0.159580	4.594477
0.74880	0.160230	4.622991
0.75197	0.159653	4.649926
0.75515	0.159779	4.683791
0.75832	0.159976	4.716216
0.76149	0.160321	4.744949
0.76466	0.160859	4.768659
0.76783	0.161271	4.796740
0.77100	0.161914	4.818559
0.77418	0.162427	4.844988
0.77735	0.163306	4.860964
0.78052	0.163680	4.892550
0.78368	0.164301	4.917170
0.78685	0.165226	4.933393
0.79002	0.165179	4.979284
0.79319	0.166032	4.998649
0.79636	0.166327	5.035363
0.79952	0.167119	5.057390
0.80269	0.167661	5.087641
0.80586	0.168503	5.109208
0.80902	0.168671	5.151606
0.81219	0.169799	5.165347
0.81535	0.170547	5.190941
0.81852	0.170983	5.226619
0.82168	0.171894	5.248036
0.82484	0.172951	5.265404
0.82800	0.173437	5.300527
0.83117	0.174771	5.310349
0.83433	0.175355	5.343217
0.83749	0.176209	5.368199
0.84065	0.176992	5.395655
0.84381	0.177576	5.429539
0.84697	0.178321	5.458839
0.85013	0.179013	5.490053
0.85329	0.179816	5.518152
0.85644	0.180565	5.548048
0.85960	0.181661	5.567705
0.86276	0.182415	5.598154
0.86591	0.183955	5.604662
0.86907	0.184669	5.636804
0.87222	0.185619	5.661829
0.87538	0.186484	5.689854
0.87853	0.187454	5.714736
0.88168	0.188248	5.745232
0.88484	0.189201	5.771219
0.88799	0.190908	5.774391
0.89114	0.191561	5.809730
0.89429	0.192213	5.845313
0.89744	0.193456	5.863123
0.90059	0.194480	5.887791
0.90374	0.194904	5.930836
0.90689	0.196179	5.948245
0.91004	0.197491	5.964686
0.91318	0.198071	6.003298
0.91633	0.198901	6.034681
0.91948	0.200599	6.039945
0.92262	0.201551	6.067739
0.92577	0.202778	6.087580
0.92891	0.204038	6.106418
0.93205	0.205300	6.125349
0.93519	0.206083	6.158698
0.93834	0.206863	6.192474
0.94148	0.207958	6.216776
0.94462	0.208928	6.244887
0.94776	0.210504	6.255093
0.95090	0.211570	6.280598
0.95404	0.212978	6.296071
0.95717	0.213179	6.347251
0.96031	0.214535	6.364445
0.96345	0.215322	6.398627
0.96658	0.216728	6.414364
0.96972	0.217609	6.445915
0.97285	0.219326	6.452691
0.97599	0.220002	6.490452
0.97912	0.220786	6.524952
0.98225	0.222568	6.530101
0.98538	0.223782	6.552088
0.98851	0.224875	6.577706
0.99164	0.226124	6.598830
0.99477	0.226903	6.633765
0.99790	0.228922	6.632657
1.0117	0.233986	6.740349
1.0185	0.236255	6.800382
1.0254	0.239168	6.844060
1.0322	0.241927	6.890641
1.0390	0.244175	6.952069
1.0459	0.246931	7.001166
1.0527	0.249522	7.053337
1.0595	0.252246	7.102040
1.0664	0.254626	7.162493
1.0732	0.256914	7.223934
1.0800	0.259285	7.283268
1.0869	0.261974	7.335757
1.0937	0.265120	7.373910
1.1005	0.268079	7.417593
1.1074	0.270396	7.481210
1.1142	0.273077	7.533118
1.1210	0.275990	7.578917
1.1278	0.278586	7.633728
1.1347	0.281394	7.684844
1.1415	0.283895	7.742765
1.1483	0.287215	7.778714
1.1551	0.289731	7.836826
1.1620	0.291834	7.908248
1.1688	0.295134	7.945752
1.1756	0.297487	8.009124
1.1824	0.300000	8.068534
1.1893	0.303840	8.094614
1.1961	0.306716	8.145065
1.2029	0.309504	8.198232
1.2097	0.312236	8.253279
1.2166	0.315744	8.290184
1.2234	0.319248	8.325901
1.2302	0.321692	8.389741
1.2370	0.324348	8.448502
1.2439	0.326938	8.511328
1.2507	0.329533	8.572575
1.2575	0.332929	8.613546
1.2643	0.335221	8.683609
1.2712	0.339567	8.703155
1.2780	0.343846	8.723515
1.2848	0.346090	8.796299
1.2917	0.348673	8.862917
1.2985	0.352307	8.901599
1.3053	0.355528	8.951392
1.3122	0.359197	8.992577
1.3190	0.362172	9.049901
1.3258	0.364470	9.124823
1.3327	0.367632	9.180775
1.3395	0.371558	9.216490
1.3464	0.375752	9.248509
1.3532	0.377552	9.338380
1.3601	0.382644	9.350000
1.3669	0.386877	9.381861
1.3738	0.389972	9.444265
1.3806	0.394586	9.468865
1.3875	0.396219	9.568140
1.3943	0.400641	9.599152
1.4012	0.403595	9.668375
1.4080	0.407843	9.705539
1.4149	0.411792	9.752953
1.4218	0.414658	9.827004
1.4286	0.418888	9.867703
1.4355	0.423521	9.902198
1.4424	0.426226	9.982907
1.4492	0.430136	10.03434
