Material: main / Au / Magnozzi-350C
Optical constants. M. Magnozzi, M. Ferrera, L. Mattera, M. Canepa, F. Bisio. Plasmonics of Au nanoparticles in a hot thermodynamic bath, Nanoscale, 11, 1140–1146 (2019) (Numerical data kindly provided by Michele Magnozzi)
Comments: Optically-thick and morphologically-flat Au film at 350 °C.
Specs: {"n_is_absolute": true, "wavelength_is_vacuum": true, "temperature": "350 °C"}
wavelength (um)	n	k
0.25157	1.312735	1.642811
0.25475	1.313336	1.692527
0.25793	1.334519	1.709659
0.26112	1.351667	1.742338
0.26430	1.353621	1.765852
0.26749	1.364670	1.795972
0.27067	1.380193	1.820424
0.27386	1.399815	1.848825
0.27704	1.421331	1.872316
0.28023	1.439221	1.894958
0.28341	1.457212	1.917021
0.28660	1.474532	1.938100
0.28978	1.496265	1.956158
0.29297	1.520961	1.966833
0.29616	1.545122	1.980762
0.29934	1.566168	1.988329
0.30253	1.585170	1.992277
0.30572	1.602950	1.994316
0.30890	1.619828	1.995362
0.31209	1.635956	1.995832
0.31528	1.651281	1.995814
0.31847	1.665790	1.995205
0.32166	1.679265	1.993826
0.32484	1.691514	1.991497
0.32803	1.702347	1.988093
0.33122	1.711594	1.983568
0.33441	1.719119	1.977974
0.33760	1.724812	1.971478
0.34079	1.728666	1.964270
0.34398	1.730661	1.956665
0.34717	1.730852	1.949006
0.35036	1.729342	1.941651
0.35355	1.726278	1.934954
0.35674	1.721846	1.929233
0.35993	1.716266	1.924750
0.36312	1.709780	1.921694
0.36631	1.702643	1.920165
0.36950	1.695109	1.920166
0.37269	1.687421	1.921607
0.37588	1.679772	1.924318
0.37907	1.672390	1.928029
0.38226	1.665384	1.932440
0.38545	1.658836	1.937214
0.38864	1.652772	1.942008
0.39184	1.647165	1.946499
0.39503	1.641940	1.950407
0.39822	1.636978	1.953515
0.40141	1.632116	1.955685
0.40460	1.627210	1.956842
0.40779	1.622065	1.957016
0.41099	1.616503	1.956304
0.41418	1.610354	1.954862
0.41737	1.603477	1.952889
0.42056	1.595731	1.950589
0.42375	1.587086	1.948177
0.42694	1.577479	1.945804
0.43014	1.566901	1.943559
0.43333	1.555333	1.941437
0.43652	1.542875	1.939354
0.43971	1.529511	1.937115
0.44291	1.515227	1.934465
0.44610	1.499952	1.931122
0.44929	1.483482	1.926828
0.45248	1.465671	1.921481
0.45567	1.446122	1.915141
0.45887	1.424404	1.908155
0.46206	1.399975	1.901164
0.46525	1.372588	1.895155
0.46844	1.342007	1.891144
0.47164	1.308528	1.889851
0.47483	1.273220	1.890896
0.47802	1.238144	1.891487
0.48121	1.207170	1.884395
0.48440	1.163245	1.891148
0.48760	1.114109	1.903247
0.49079	1.064556	1.917903
0.49398	1.025410	1.929810
0.49717	0.988246	1.942211
0.50036	0.936606	1.963679
0.50356	0.886204	1.990219
0.50675	0.841104	2.021998
0.50994	0.799063	2.049294
0.51313	0.764962	2.079869
0.51632	0.728994	2.110323
0.51951	0.689304	2.150010
0.52271	0.650124	2.189800
0.52590	0.616120	2.228681
0.52909	0.586571	2.270099
0.53228	0.562643	2.312813
0.53547	0.535508	2.355832
0.53866	0.508374	2.397171
0.54185	0.484067	2.436701
0.54504	0.461278	2.480343
0.54823	0.444399	2.522858
0.55142	0.428441	2.568949
0.55461	0.412565	2.615170
0.55780	0.395769	2.654514
0.56099	0.379987	2.694143
0.56418	0.366870	2.731013
0.56737	0.354807	2.772766
0.57056	0.347288	2.818587
0.57375	0.336813	2.865016
0.57694	0.327471	2.905397
0.58013	0.317619	2.945817
0.58332	0.310677	2.979578
0.58651	0.297879	3.016365
0.58970	0.287750	3.053278
0.59289	0.285295	3.097634
0.59607	0.280613	3.135713
0.59926	0.274928	3.176482
0.60245	0.272326	3.211394
0.60564	0.264427	3.248730
0.60882	0.258009	3.275885
0.61201	0.251934	3.311069
0.61520	0.248618	3.342844
0.61839	0.244810	3.384537
0.62157	0.242534	3.417855
0.62476	0.239999	3.457632
0.62794	0.233707	3.493027
0.63113	0.231697	3.526953
0.63432	0.223934	3.551676
0.63750	0.224531	3.582186
0.64069	0.219476	3.610354
0.64387	0.216718	3.642645
0.64706	0.210929	3.681296
0.65024	0.209153	3.716858
0.65342	0.208656	3.752798
0.65661	0.205695	3.788571
0.65979	0.202808	3.817916
0.66297	0.201778	3.850051
0.66616	0.198724	3.874796
0.66934	0.195705	3.905982
0.67252	0.192031	3.942073
0.67570	0.192653	3.973770
0.67889	0.189799	4.008859
0.68207	0.190289	4.047912
0.68525	0.191456	4.080835
0.68843	0.192823	4.111265
0.69161	0.195771	4.144839
0.69479	0.187293	4.174713
0.69797	0.195139	4.199805
0.70115	0.187799	4.232187
0.70433	0.189898	4.260238
0.70751	0.193536	4.292560
0.71069	0.194220	4.323396
0.71386	0.191235	4.362158
0.71704	0.197874	4.391235
0.72022	0.194964	4.416996
0.72340	0.190347	4.450663
0.72657	0.196860	4.473043
0.72975	0.196850	4.508165
0.73292	0.195193	4.539365
0.73610	0.196176	4.557214
0.73928	0.193339	4.589023
0.74245	0.193254	4.615259
0.74562	0.204214	4.640985
0.74880	0.201281	4.672567
0.75197	0.196830	4.699407
0.75515	0.197432	4.734222
0.75832	0.198250	4.763908
0.76149	0.199161	4.791533
0.76466	0.200299	4.813873
0.76783	0.201263	4.840552
0.77100	0.202359	4.864225
0.77418	0.203351	4.890708
0.77735	0.204772	4.906909
0.78052	0.205696	4.935190
0.78368	0.206568	4.964721
0.78685	0.208151	4.977510
0.79002	0.208586	5.017970
0.79319	0.209798	5.039947
0.79636	0.210434	5.075936
0.79952	0.211503	5.101505
0.80269	0.212365	5.132355
0.80586	0.213867	5.147910
0.80902	0.214120	5.193629
0.81219	0.215485	5.212751
0.81535	0.216422	5.242231
0.81852	0.217422	5.270485
0.82168	0.218740	5.291003
0.82484	0.219937	5.314598
0.82800	0.220769	5.347174
0.83117	0.222553	5.357031
0.83433	0.223546	5.385972
0.83749	0.224409	5.418182
0.84065	0.225569	5.443340
0.84381	0.226334	5.478203
0.84697	0.227366	5.506714
0.85013	0.228292	5.537958
0.85329	0.229113	5.571865
0.85644	0.230126	5.601099
0.85960	0.231352	5.625414
0.86276	0.232468	5.652574
0.86591	0.234553	5.656186
0.86907	0.235324	5.691915
0.87222	0.236399	5.720247
0.87538	0.237666	5.744232
0.87853	0.239175	5.762330
0.88168	0.239917	5.799045
0.88484	0.240821	5.832176
0.88799	0.243029	5.833783
0.89114	0.244159	5.861507
0.89429	0.244860	5.899684
0.89744	0.246173	5.923237
0.90059	0.247608	5.943987
0.90374	0.248077	5.988092
0.90689	0.249525	6.008735
0.91004	0.251223	6.023515
0.91318	0.251841	6.064181
0.91633	0.252632	6.101019
0.91948	0.254861	6.103343
0.92262	0.256013	6.131529
0.92577	0.257582	6.150003
0.92891	0.259578	6.158324
0.93205	0.260457	6.193307
0.93519	0.261878	6.215535
0.93834	0.262546	6.255956
0.94148	0.264016	6.277223
0.94462	0.265173	6.306042
0.94776	0.267022	6.318560
0.95090	0.268275	6.345336
0.95404	0.269879	6.363929
0.95717	0.270914	6.395878
0.96031	0.271803	6.431590
0.96345	0.273044	6.459063
0.96658	0.274353	6.484863
0.96972	0.276041	6.502019
0.97285	0.278186	6.508431
0.97599	0.278847	6.549947
0.97912	0.279919	6.581748
0.98225	0.281903	6.592273
0.98538	0.283282	6.617086
0.98851	0.284769	6.639512
0.99164	0.286454	6.657424
0.99477	0.287264	6.695818
0.99790	0.289725	6.695973
1.0117	0.296299	6.797326
1.0185	0.299342	6.852556
1.0254	0.302912	6.898088
1.0322	0.306485	6.942305
1.0390	0.309327	7.003600
1.0459	0.312613	7.057195
1.0527	0.315993	7.107331
1.0595	0.319384	7.157737
1.0664	0.322652	7.213271
1.0732	0.325401	7.279048
1.0800	0.328462	7.338314
1.0869	0.331663	7.396807
1.0937	0.336014	7.428399
1.1005	0.339558	7.478470
1.1074	0.342727	7.539204
1.1142	0.346167	7.592566
1.1210	0.350078	7.636158
1.1278	0.353501	7.690916
1.1347	0.356975	7.746977
1.1415	0.360275	7.805400
1.1483	0.364544	7.843397
1.1551	0.367879	7.902080
1.1620	0.370816	7.971693
1.1688	0.375285	8.007067
1.1756	0.378204	8.076074
1.1824	0.381640	8.134529
1.1893	0.386439	8.166526
1.1961	0.390470	8.213487
1.2029	0.394095	8.269505
1.2097	0.398009	8.320005
1.2166	0.402405	8.362946
1.2234	0.407042	8.399588
1.2302	0.410787	8.455237
1.2370	0.413863	8.525156
1.2439	0.417607	8.583775
1.2507	0.421082	8.646475
1.2575	0.425905	8.682078
1.2643	0.428862	8.756337
1.2712	0.434639	8.775756
1.2780	0.440317	8.796225
1.2848	0.443393	8.869430
1.2917	0.447289	8.928696
1.2985	0.451738	8.975504
1.3053	0.456134	9.023951
1.3122	0.461164	9.062487
1.3190	0.465304	9.117153
1.3258	0.468612	9.188626
1.3327	0.472159	9.257932
1.3395	0.478305	9.275049
1.3464	0.482935	9.324405
1.3532	0.485952	9.403461
1.3601	0.492390	9.419163
1.3669	0.497689	9.455585
1.3738	0.501954	9.514283
1.3806	0.508613	9.526452
1.3875	0.509828	9.643693
1.3943	0.515768	9.670453
1.4012	0.519996	9.732068
1.4080	0.524675	9.783748
1.4149	0.530578	9.815357
1.4218	0.533781	9.897624
1.4286	0.538673	9.947090
1.4355	0.545139	9.970330
1.4424	0.548580	10.04968
1.4492	0.554162	10.08837
