Material: perovskite / CsPbBr3 / Ermolaev-e
Optical constants. G. Ermolaev, A. P. Pushkarev, A. Zhizhchenko, A. A. Kuchmizhak, I. Iorsh, I. Kruglov, A. Mazitov, A. Ishteev, K. Konstantinova, D. Saranin, A. Slavich, D. Stosic, E. S. Zhukova, G. Tselikov, A. D. Carlo, A. Arsenin, K. S. Novoselov, S. V. Makarov, V. S. Volkov. Giant and tunable excitonic optical anisotropy in single-crystal halide perovskites, Nano Lett. 23, 2570â€“2577 (2023) (Numerical data kindly provided by Georgy Ermolaev)
Comments: CsPbBr3 monocrystal. Extraordinary ray (e).
Specs: {"n_is_absolute": true, "wavelength_is_vacuum": true}
wavelength (um)	n	k
0.500	2.11250	0
0.502	2.11074	0
0.504	2.10899	0
0.506	2.10727	0
0.508	2.10557	0
0.510	2.10389	0
0.512	2.10222	0
0.514	2.10058	0
0.516	2.09895	0
0.518	2.09735	0
0.520	2.09576	0
0.522	2.09419	0
0.524	2.09264	0
0.526	2.09111	0
0.528	2.08959	0
0.530	2.08809	0
0.532	2.08661	0
0.534	2.08514	0
0.536	2.08369	0
0.538	2.08226	0
0.540	2.08084	0
0.542	2.07944	0
0.544	2.07806	0
0.546	2.07668	0
0.548	2.07533	0
0.550	2.07399	0
0.552	2.07266	0
0.554	2.07135	0
0.556	2.07005	0
0.558	2.06877	0
0.560	2.06750	0
0.562	2.06624	0
0.564	2.06500	0
0.566	2.06376	0
0.568	2.06255	0
0.570	2.06134	0
0.572	2.06015	0
0.574	2.05897	0
0.576	2.05780	0
0.578	2.05665	0
0.580	2.05551	0
0.582	2.05437	0
0.584	2.05325	0
0.586	2.05214	0
0.588	2.05105	0
0.590	2.04996	0
0.592	2.04889	0
0.594	2.04782	0
0.596	2.04677	0
0.598	2.04573	0
0.600	2.04469	0
0.602	2.04367	0
0.604	2.04266	0
0.606	2.04166	0
0.608	2.04066	0
0.610	2.03968	0
0.612	2.03871	0
0.614	2.03775	0
0.616	2.03679	0
0.618	2.03585	0
0.620	2.03491	0
0.622	2.03398	0
0.624	2.03307	0
0.626	2.03216	0
0.628	2.03126	0
0.630	2.03037	0
0.632	2.02948	0
0.634	2.02861	0
0.636	2.02774	0
0.638	2.02688	0
0.640	2.02603	0
0.642	2.02519	0
0.644	2.02435	0
0.646	2.02353	0
0.648	2.02271	0
0.650	2.02190	0
0.652	2.02109	0
0.654	2.02029	0
0.656	2.01950	0
0.658	2.01872	0
0.660	2.01795	0
0.662	2.01718	0
0.664	2.01642	0
0.666	2.01566	0
0.668	2.01491	0
0.670	2.01417	0
0.672	2.01344	0
0.674	2.01271	0
0.676	2.01199	0
0.678	2.01127	0
0.680	2.01056	0
0.682	2.00986	0
0.684	2.00916	0
0.686	2.00847	0
0.688	2.00779	0
0.690	2.00711	0
0.692	2.00644	0
0.694	2.00577	0
0.696	2.00511	0
0.698	2.00446	0
0.700	2.00381	0
0.702	2.00316	0
0.704	2.00252	0
0.706	2.00189	0
0.708	2.00126	0
0.710	2.00064	0
0.712	2.00002	0
0.714	1.99941	0
0.716	1.99880	0
0.718	1.99820	0
0.720	1.99760	0
0.722	1.99701	0
0.724	1.99642	0
0.726	1.99584	0
0.728	1.99526	0
0.730	1.99469	0
0.732	1.99412	0
0.734	1.99356	0
0.736	1.99300	0
0.738	1.99245	0
0.740	1.99190	0
0.742	1.99135	0
0.744	1.99081	0
0.746	1.99027	0
0.748	1.98974	0
0.750	1.98921	0
0.752	1.98869	0
0.754	1.98817	0
0.756	1.98765	0
0.758	1.98714	0
0.760	1.98663	0
0.762	1.98613	0
0.764	1.98563	0
0.766	1.98514	0
0.768	1.98464	0
0.770	1.98415	0
0.772	1.98367	0
0.774	1.98319	0
0.776	1.98271	0
0.778	1.98224	0
0.780	1.98177	0
0.782	1.98131	0
0.784	1.98084	0
0.786	1.98038	0
0.788	1.97993	0
0.790	1.97948	0
0.792	1.97903	0
0.794	1.97858	0
0.796	1.97814	0
0.798	1.97770	0
0.800	1.97727	0
0.802	1.97684	0
0.804	1.97641	0
0.806	1.97598	0
0.808	1.97556	0
0.810	1.97514	0
0.812	1.97473	0
0.814	1.97431	0
0.816	1.97390	0
0.818	1.97350	0
0.820	1.97309	0
0.822	1.97269	0
0.824	1.97229	0
0.826	1.97190	0
0.828	1.97151	0
0.830	1.97112	0
0.832	1.97073	0
0.834	1.97035	0
0.836	1.96996	0
0.838	1.96958	0
0.840	1.96921	0
0.842	1.96884	0
0.844	1.96847	0
0.846	1.96810	0
0.848	1.96773	0
0.850	1.96737	0
0.852	1.96701	0
0.854	1.96665	0
0.856	1.96630	0
0.858	1.96595	0
0.860	1.96560	0
0.862	1.96525	0
0.864	1.96490	0
0.866	1.96456	0
0.868	1.96422	0
0.870	1.96388	0
0.872	1.96354	0
0.874	1.96321	0
0.876	1.96288	0
0.878	1.96255	0
0.880	1.96222	0
0.882	1.96190	0
0.884	1.96158	0
0.886	1.96126	0
0.888	1.96094	0
0.890	1.96062	0
0.892	1.96031	0
0.894	1.96000	0
0.896	1.95969	0
0.898	1.95938	0
0.900	1.95907	0
0.902	1.95877	0
0.904	1.95847	0
0.906	1.95817	0
0.908	1.95787	0
0.910	1.95758	0
0.912	1.95728	0
0.914	1.95699	0
0.916	1.95670	0
0.918	1.95642	0
0.920	1.95613	0
0.922	1.95585	0
0.924	1.95556	0
0.926	1.95528	0
0.928	1.95500	0
0.930	1.95473	0
0.932	1.95445	0
0.934	1.95418	0
0.936	1.95391	0
0.938	1.95364	0
0.940	1.95337	0
0.942	1.95310	0
0.944	1.95284	0
0.946	1.95258	0
0.948	1.95231	0
