Material: perovskite / CsPbBr3 / Ermolaev-o
Optical constants. G. Ermolaev, A. P. Pushkarev, A. Zhizhchenko, A. A. Kuchmizhak, I. Iorsh, I. Kruglov, A. Mazitov, A. Ishteev, K. Konstantinova, D. Saranin, A. Slavich, D. Stosic, E. S. Zhukova, G. Tselikov, A. D. Carlo, A. Arsenin, K. S. Novoselov, S. V. Makarov, V. S. Volkov. Giant and tunable excitonic optical anisotropy in single-crystal halide perovskites, Nano Lett. 23, 2570â€“2577 (2023) (Numerical data kindly provided by Georgy Ermolaev)
Comments: CsPbBr3 monocrystal. Ordinary ray (o).
Specs: {"n_is_absolute": true, "wavelength_is_vacuum": true}
wavelength (um)	n	k
0.500	2.29280	0.16069
0.502	2.28282	0.17919
0.504	2.27417	0.20199
0.506	2.26811	0.23034
0.508	2.26696	0.26561
0.510	2.27484	0.30888
0.512	2.29855	0.35935
0.514	2.34747	0.41095
0.516	2.42873	0.44720
0.518	2.53393	0.44222
0.520	2.62947	0.38172
0.522	2.68011	0.28668
0.524	2.68277	0.19433
0.526	2.65742	0.12431
0.528	2.62239	0.07721
0.530	2.58716	0.04707
0.532	2.55524	0.02813
0.534	2.52742	0.01630
0.536	2.50346	0.00898
0.538	2.48285	0.00454
0.540	2.46503	0.00196
0.542	2.44956	6.03E-4
0.544	2.43606	5.70E-5
0.546	2.42433	0
0.548	2.41402	0
0.550	2.40471	0
0.552	2.39621	0
0.554	2.38837	0
0.556	2.38109	0
0.558	2.37428	0
0.560	2.36787	0
0.562	2.36183	0
0.564	2.35611	0
0.566	2.35067	0
0.568	2.34549	0
0.570	2.34055	0
0.572	2.33581	0
0.574	2.33126	0
0.576	2.32689	0
0.578	2.32269	0
0.580	2.31864	0
0.582	2.31472	0
0.584	2.31094	0
0.586	2.30729	0
0.588	2.30374	0
0.590	2.30031	0
0.592	2.29698	0
0.594	2.29374	0
0.596	2.29060	0
0.598	2.28754	0
0.600	2.28456	0
0.602	2.28167	0
0.604	2.27884	0
0.606	2.27609	0
0.608	2.27341	0
0.610	2.27079	0
0.612	2.26823	0
0.614	2.26573	0
0.616	2.26329	0
0.618	2.26090	0
0.620	2.25857	0
0.622	2.25629	0
0.624	2.25405	0
0.626	2.25186	0
0.628	2.24972	0
0.630	2.24763	0
0.632	2.24557	0
0.634	2.24355	0
0.636	2.24158	0
0.638	2.23964	0
0.640	2.23774	0
0.642	2.23588	0
0.644	2.23405	0
0.646	2.23225	0
0.648	2.23049	0
0.650	2.22876	0
0.652	2.22706	0
0.654	2.22539	0
0.656	2.22375	0
0.658	2.22214	0
0.660	2.22055	0
0.662	2.21899	0
0.664	2.21746	0
0.666	2.21595	0
0.668	2.21447	0
0.670	2.21301	0
0.672	2.21158	0
0.674	2.21017	0
0.676	2.20878	0
0.678	2.20741	0
0.680	2.20606	0
0.682	2.20474	0
0.684	2.20343	0
0.686	2.20215	0
0.688	2.20088	0
0.690	2.19963	0
0.692	2.19841	0
0.694	2.19720	0
0.696	2.19600	0
0.698	2.19483	0
0.700	2.19367	0
0.702	2.19253	0
0.704	2.19140	0
0.706	2.19029	0
0.708	2.18919	0
0.710	2.18811	0
0.712	2.18705	0
0.714	2.18600	0
0.716	2.18496	0
0.718	2.18394	0
0.720	2.18293	0
0.722	2.18194	0
0.724	2.18096	0
0.726	2.17999	0
0.728	2.17903	0
0.730	2.17809	0
0.732	2.17715	0
0.734	2.17623	0
0.736	2.17533	0
0.738	2.17443	0
0.740	2.17354	0
0.742	2.17267	0
0.744	2.17181	0
0.746	2.17095	0
0.748	2.17011	0
0.750	2.16928	0
0.752	2.16845	0
0.754	2.16764	0
0.756	2.16684	0
0.758	2.16605	0
0.760	2.16526	0
0.762	2.16449	0
0.764	2.16372	0
0.766	2.16297	0
0.768	2.16222	0
0.770	2.16148	0
0.772	2.16075	0
0.774	2.16003	0
0.776	2.15931	0
0.778	2.15861	0
0.780	2.15791	0
0.782	2.15722	0
0.784	2.15654	0
0.786	2.15586	0
0.788	2.15519	0
0.790	2.15453	0
0.792	2.15388	0
0.794	2.15323	0
0.796	2.15259	0
0.798	2.15196	0
0.800	2.15134	0
0.802	2.15072	0
0.804	2.15010	0
0.806	2.14950	0
0.808	2.14890	0
0.810	2.14831	0
0.812	2.14772	0
0.814	2.14714	0
0.816	2.14656	0
0.818	2.14600	0
0.820	2.14543	0
0.822	2.14487	0
0.824	2.14432	0
0.826	2.14378	0
0.828	2.14323	0
0.830	2.14270	0
0.832	2.14217	0
0.834	2.14164	0
0.836	2.14113	0
0.838	2.14061	0
0.840	2.14010	0
0.842	2.13960	0
0.844	2.13910	0
0.846	2.13860	0
0.848	2.13811	0
0.850	2.13763	0
0.852	2.13714	0
0.854	2.13667	0
0.856	2.13620	0
0.858	2.13573	0
0.860	2.13527	0
0.862	2.13481	0
0.864	2.13435	0
0.866	2.13390	0
0.868	2.13346	0
0.870	2.13301	0
0.872	2.13258	0
0.874	2.13214	0
0.876	2.13171	0
0.878	2.13129	0
0.880	2.13087	0
0.882	2.13045	0
0.884	2.13003	0
0.886	2.12962	0
0.888	2.12921	0
0.890	2.12881	0
0.892	2.12841	0
0.894	2.12801	0
0.896	2.12762	0
0.898	2.12723	0
0.900	2.12684	0
0.902	2.12646	0
0.904	2.12608	0
0.906	2.12571	0
0.908	2.12533	0
0.910	2.12496	0
0.912	2.12460	0
0.914	2.12423	0
0.916	2.12387	0
0.918	2.12351	0
0.920	2.12316	0
0.922	2.12281	0
0.924	2.12246	0
0.926	2.12211	0
0.928	2.12177	0
0.930	2.12143	0
0.932	2.12109	0
0.934	2.12076	0
0.936	2.12043	0
0.938	2.12010	0
0.940	2.11977	0
0.942	2.11945	0
0.944	2.11913	0
0.946	2.11881	0
0.948	2.11849	0
