Material: perovskite / Cs2AgBiBr6 / Jobsis
Optical constants. H. J. Jöbsis, V. M. Caselli, S. H. C. Askes, E. C. Garnett, T. J. Savenije, F. T. Rabouw, E. M. Hutter. Recombination and localization: Unfolding the pathways behind conductivity losses in Cs2AgBiBr6 thin films, Appl. Phys. Lett. 119, 131908 (2021) (Numerical data kindly provided by Huygen Jöbsis)
Comments: Cs2AgBiBr6 thin films of 100 nm at room temperature
wavelength (um)	n	k
3.000E-01	2.083943E+00	5.77623E-01
3.040E-01	2.089675E+00	5.78237E-01
3.080E-01	2.097324E+00	5.79007E-01
3.120E-01	2.106998E+00	5.79459E-01
3.160E-01	2.118685E+00	5.79057E-01
3.200E-01	2.132230E+00	5.77236E-01
3.240E-01	2.147305E+00	5.73449E-01
3.280E-01	2.163421E+00	5.67219E-01
3.320E-01	2.179930E+00	5.58194E-01
3.360E-01	2.196072E+00	5.46195E-01
3.400E-01	2.211016E+00	5.31245E-01
3.440E-01	2.223896E+00	5.13579E-01
3.480E-01	2.233822E+00	4.93663E-01
3.520E-01	2.239859E+00	4.72280E-01
3.560E-01	2.241086E+00	4.50780E-01
3.600E-01	2.237024E+00	4.31435E-01
3.640E-01	2.228683E+00	4.17406E-01
3.680E-01	2.219734E+00	4.11436E-01
3.720E-01	2.216194E+00	4.13181E-01
3.760E-01	2.223221E+00	4.17259E-01
3.800E-01	2.240726E+00	4.15034E-01
3.840E-01	2.262123E+00	3.99879E-01
3.880E-01	2.277943E+00	3.71370E-01
3.920E-01	2.280970E+00	3.35044E-01
3.960E-01	2.268982E+00	2.98892E-01
4.000E-01	2.244177E+00	2.69741E-01
4.040E-01	2.210778E+00	2.51591E-01
4.080E-01	2.172801E+00	2.46092E-01
4.120E-01	2.133153E+00	2.54208E-01
4.160E-01	2.094321E+00	2.77959E-01
4.200E-01	2.060687E+00	3.21430E-01
4.240E-01	2.042756E+00	3.89564E-01
4.280E-01	2.061937E+00	4.80429E-01
4.320E-01	2.143480E+00	5.67040E-01
4.360E-01	2.279206E+00	5.94686E-01
4.400E-01	2.406199E+00	5.37128E-01
4.440E-01	2.473311E+00	4.35678E-01
4.480E-01	2.486684E+00	3.39590E-01
4.520E-01	2.472318E+00	2.65898E-01
4.560E-01	2.447817E+00	2.12836E-01
4.600E-01	2.421299E+00	1.74722E-01
4.640E-01	2.395884E+00	1.46782E-01
4.680E-01	2.372549E+00	1.25735E-01
4.720E-01	2.351436E+00	1.09439E-01
4.760E-01	2.332390E+00	9.64940E-02
4.800E-01	2.315170E+00	8.59750E-02
4.840E-01	2.299534E+00	7.72580E-02
4.880E-01	2.285263E+00	6.99090E-02
4.920E-01	2.272169E+00	6.36230E-02
4.960E-01	2.260094E+00	5.81780E-02
5.000E-01	2.248907E+00	5.34110E-02
5.040E-01	2.238498E+00	4.91980E-02
5.080E-01	2.228774E+00	4.54460E-02
5.120E-01	2.219657E+00	4.20810E-02
5.160E-01	2.211083E+00	3.90450E-02
5.200E-01	2.202996E+00	3.62930E-02
5.240E-01	2.195348E+00	3.37860E-02
5.280E-01	2.188097E+00	3.14930E-02
5.320E-01	2.181209E+00	2.93900E-02
5.360E-01	2.174652E+00	2.74550E-02
5.400E-01	2.168399E+00	2.56700E-02
5.440E-01	2.162427E+00	2.40190E-02
5.480E-01	2.156713E+00	2.24900E-02
5.520E-01	2.151241E+00	2.10700E-02
5.560E-01	2.145991E+00	1.97510E-02
5.600E-01	2.140950E+00	1.85230E-02
5.640E-01	2.136104E+00	1.73780E-02
5.680E-01	2.131440E+00	1.63110E-02
5.720E-01	2.126948E+00	1.53140E-02
5.760E-01	2.122618E+00	1.43840E-02
5.800E-01	2.118440E+00	1.35140E-02
5.840E-01	2.114406E+00	1.27010E-02
5.880E-01	2.110508E+00	1.19410E-02
5.920E-01	2.106739E+00	1.12290E-02
5.960E-01	2.103093E+00	1.05640E-02
6.000E-01	2.099563E+00	9.94200E-03
6.040E-01	2.096144E+00	9.36100E-03
6.080E-01	2.092831E+00	8.81800E-03
6.120E-01	2.089620E+00	8.31000E-03
6.160E-01	2.086504E+00	7.83700E-03
6.200E-01	2.083481E+00	7.39500E-03
6.240E-01	2.080547E+00	6.98300E-03
6.280E-01	2.077698E+00	6.60000E-03
6.320E-01	2.074930E+00	6.24500E-03
6.360E-01	2.072241E+00	5.91500E-03
6.400E-01	2.069627E+00	5.60900E-03
6.440E-01	2.067086E+00	5.32600E-03
6.480E-01	2.064615E+00	5.06600E-03
6.520E-01	2.062212E+00	4.82700E-03
6.560E-01	2.059874E+00	4.60800E-03
6.600E-01	2.057600E+00	4.40800E-03
6.640E-01	2.055388E+00	4.22600E-03
6.680E-01	2.053235E+00	4.06200E-03
6.720E-01	2.051141E+00	3.91500E-03
6.760E-01	2.049103E+00	3.78400E-03
6.800E-01	2.047122E+00	3.66800E-03
6.840E-01	2.045195E+00	3.56700E-03
6.880E-01	2.043323E+00	3.48000E-03
6.920E-01	2.041507E+00	3.40700E-03
6.960E-01	2.039748E+00	3.33900E-03
7.000E-01	2.038039E+00	3.27500E-03
7.040E-01	2.036378E+00	3.21200E-03
7.080E-01	2.034761E+00	3.15200E-03
7.120E-01	2.033185E+00	3.09500E-03
7.160E-01	2.031650E+00	3.03900E-03
7.200E-01	2.030153E+00	2.98500E-03
7.240E-01	2.028692E+00	2.93300E-03
7.280E-01	2.027267E+00	2.88300E-03
7.320E-01	2.025875E+00	2.83400E-03
7.360E-01	2.024516E+00	2.78800E-03
7.400E-01	2.023188E+00	2.74200E-03
7.440E-01	2.021891E+00	2.69800E-03
7.480E-01	2.020622E+00	2.65600E-03
7.520E-01	2.019382E+00	2.61500E-03
7.560E-01	2.018169E+00	2.57500E-03
7.600E-01	2.016982E+00	2.53600E-03
7.640E-01	2.015820E+00	2.49900E-03
7.680E-01	2.014683E+00	2.46200E-03
7.720E-01	2.013571E+00	2.42700E-03
7.760E-01	2.012481E+00	2.39300E-03
7.800E-01	2.011413E+00	2.35900E-03
7.840E-01	2.010367E+00	2.32700E-03
7.880E-01	2.009343E+00	2.29500E-03
7.920E-01	2.008338E+00	2.26500E-03
7.960E-01	2.007354E+00	2.23500E-03
8.000E-01	2.006389E+00	2.20600E-03
8.040E-01	2.005442E+00	2.17800E-03
8.080E-01	2.004514E+00	2.15000E-03
8.120E-01	2.003603E+00	2.12300E-03
8.160E-01	2.002710E+00	2.09700E-03
8.200E-01	2.001833E+00	2.07200E-03
8.240E-01	2.000973E+00	2.04700E-03
8.280E-01	2.000129E+00	2.02200E-03
8.320E-01	1.999299E+00	1.99900E-03
8.360E-01	1.998485E+00	1.97600E-03
8.400E-01	1.997686E+00	1.95300E-03
8.440E-01	1.996901E+00	1.93100E-03
8.480E-01	1.996129E+00	1.91000E-03
8.520E-01	1.995371E+00	1.88900E-03
8.560E-01	1.994627E+00	1.86800E-03
8.600E-01	1.993895E+00	1.84800E-03
8.640E-01	1.993176E+00	1.82800E-03
8.680E-01	1.992469E+00	1.80900E-03
8.720E-01	1.991774E+00	1.79100E-03
8.760E-01	1.991091E+00	1.77200E-03
8.800E-01	1.990419E+00	1.75400E-03
8.840E-01	1.989758E+00	1.73700E-03
8.880E-01	1.989108E+00	1.71900E-03
8.920E-01	1.988469E+00	1.70300E-03
8.960E-01	1.987840E+00	1.68600E-03
9.000E-01	1.987221E+00	1.67000E-03
9.040E-01	1.986612E+00	1.65400E-03
9.080E-01	1.986013E+00	1.63800E-03
9.120E-01	1.985423E+00	1.62300E-03
9.160E-01	1.984843E+00	1.60800E-03
9.200E-01	1.984272E+00	1.59400E-03
9.240E-01	1.983709E+00	1.57900E-03
9.280E-01	1.983155E+00	1.56500E-03
9.320E-01	1.982609E+00	1.55100E-03
9.360E-01	1.982072E+00	1.53800E-03
9.400E-01	1.981543E+00	1.52400E-03
9.440E-01	1.981022E+00	1.51100E-03
9.480E-01	1.980509E+00	1.49800E-03
9.520E-01	1.980003E+00	1.48600E-03
9.560E-01	1.979505E+00	1.47300E-03
9.600E-01	1.979014E+00	1.46100E-03
9.640E-01	1.978530E+00	1.44900E-03
9.680E-01	1.978053E+00	1.43700E-03
9.720E-01	1.977583E+00	1.42600E-03
9.760E-01	1.977120E+00	1.41500E-03
9.800E-01	1.976663E+00	1.40300E-03
9.840E-01	1.976213E+00	1.39200E-03
9.880E-01	1.975769E+00	1.38200E-03
9.920E-01	1.975332E+00	1.37100E-03
9.960E-01	1.974900E+00	1.36100E-03
1.000E+00	1.974475E+00	1.35000E-03
1.004E+00	1.974055E+00	1.34000E-03
1.008E+00	1.973641E+00	1.33000E-03
1.012E+00	1.973233E+00	1.32000E-03
1.016E+00	1.972830E+00	1.31100E-03
1.020E+00	1.972433E+00	1.30100E-03
1.024E+00	1.972041E+00	1.29200E-03
1.028E+00	1.971654E+00	1.28300E-03
1.032E+00	1.971273E+00	1.27400E-03
1.036E+00	1.970896E+00	1.26500E-03
1.040E+00	1.970525E+00	1.25600E-03
1.044E+00	1.970158E+00	1.24700E-03
1.048E+00	1.969796E+00	1.23900E-03
1.052E+00	1.969439E+00	1.23000E-03
1.056E+00	1.969086E+00	1.22200E-03
1.060E+00	1.968738E+00	1.21400E-03
1.064E+00	1.968394E+00	1.20600E-03
1.068E+00	1.968055E+00	1.19800E-03
1.072E+00	1.967720E+00	1.19000E-03
1.076E+00	1.967389E+00	1.18200E-03
1.080E+00	1.967062E+00	1.17500E-03
1.084E+00	1.966739E+00	1.16700E-03
1.088E+00	1.966421E+00	1.16000E-03
1.092E+00	1.966106E+00	1.15300E-03
1.096E+00	1.965795E+00	1.14500E-03
1.100E+00	1.965488E+00	1.13800E-03
1.104E+00	1.965185E+00	1.13100E-03
1.108E+00	1.964885E+00	1.12400E-03
1.112E+00	1.964589E+00	1.11800E-03
1.116E+00	1.964297E+00	1.11100E-03
1.120E+00	1.964008E+00	1.10400E-03
1.124E+00	1.963722E+00	1.09800E-03
1.128E+00	1.963440E+00	1.09100E-03
1.132E+00	1.963161E+00	1.08500E-03
1.136E+00	1.962885E+00	1.07800E-03
1.140E+00	1.962613E+00	1.07200E-03
1.144E+00	1.962344E+00	1.06600E-03
1.148E+00	1.962078E+00	1.06000E-03
1.152E+00	1.961815E+00	1.05400E-03
1.156E+00	1.961555E+00	1.04800E-03
1.160E+00	1.961298E+00	1.04200E-03
1.164E+00	1.961044E+00	1.03600E-03
1.168E+00	1.960793E+00	1.03100E-03
1.172E+00	1.960544E+00	1.02500E-03
1.176E+00	1.960299E+00	1.01900E-03
1.180E+00	1.960056E+00	1.01400E-03
1.184E+00	1.959816E+00	1.00800E-03
1.188E+00	1.959578E+00	1.00300E-03
1.192E+00	1.959343E+00	9.98000E-04
1.196E+00	1.959111E+00	9.92000E-04
1.200E+00	1.958881E+00	9.87000E-04
1.204E+00	1.958654E+00	9.82000E-04
1.208E+00	1.958430E+00	9.77000E-04
1.212E+00	1.958207E+00	9.72000E-04
1.216E+00	1.957987E+00	9.67000E-04
1.220E+00	1.957770E+00	9.62000E-04
1.224E+00	1.957555E+00	9.57000E-04
1.228E+00	1.957342E+00	9.52000E-04
1.232E+00	1.957131E+00	9.48000E-04
1.236E+00	1.956923E+00	9.43000E-04
1.240E+00	1.956717E+00	9.38000E-04
1.244E+00	1.956513E+00	9.34000E-04
1.248E+00	1.956311E+00	9.29000E-04
1.252E+00	1.956111E+00	9.24000E-04
1.256E+00	1.955913E+00	9.20000E-04
1.260E+00	1.955718E+00	9.16000E-04
1.264E+00	1.955524E+00	9.11000E-04
1.268E+00	1.955332E+00	9.07000E-04
1.272E+00	1.955142E+00	9.03000E-04
1.276E+00	1.954955E+00	8.98000E-04
1.280E+00	1.954769E+00	8.94000E-04
1.284E+00	1.954585E+00	8.90000E-04
1.288E+00	1.954403E+00	8.86000E-04
1.292E+00	1.954222E+00	8.82000E-04
1.296E+00	1.954044E+00	8.78000E-04
1.300E+00	1.953867E+00	8.74000E-04
1.304E+00	1.953692E+00	8.70000E-04
1.308E+00	1.953519E+00	8.66000E-04
1.312E+00	1.953348E+00	8.62000E-04
1.316E+00	1.953178E+00	8.58000E-04
1.320E+00	1.953009E+00	8.54000E-04
1.324E+00	1.952843E+00	8.51000E-04
1.328E+00	1.952678E+00	8.47000E-04
1.332E+00	1.952515E+00	8.43000E-04
1.336E+00	1.952353E+00	8.39000E-04
1.340E+00	1.952193E+00	8.36000E-04
1.344E+00	1.952034E+00	8.32000E-04
1.348E+00	1.951877E+00	8.29000E-04
1.352E+00	1.951721E+00	8.25000E-04
1.356E+00	1.951567E+00	8.22000E-04
1.360E+00	1.951414E+00	8.18000E-04
1.364E+00	1.951263E+00	8.15000E-04
1.368E+00	1.951113E+00	8.11000E-04
1.372E+00	1.950965E+00	8.08000E-04
1.376E+00	1.950818E+00	8.05000E-04
1.380E+00	1.950672E+00	8.01000E-04
1.384E+00	1.950528E+00	7.98000E-04
1.388E+00	1.950385E+00	7.95000E-04
1.392E+00	1.950243E+00	7.92000E-04
1.396E+00	1.950103E+00	7.88000E-04
1.400E+00	1.949964E+00	7.85000E-04
1.404E+00	1.949826E+00	7.82000E-04
1.408E+00	1.949689E+00	7.79000E-04
1.412E+00	1.949554E+00	7.76000E-04
1.416E+00	1.949420E+00	7.73000E-04
1.420E+00	1.949287E+00	7.70000E-04
1.424E+00	1.949155E+00	7.67000E-04
1.428E+00	1.949025E+00	7.64000E-04
1.432E+00	1.948895E+00	7.61000E-04
1.436E+00	1.948767E+00	7.58000E-04
1.440E+00	1.948640E+00	7.55000E-04
1.444E+00	1.948514E+00	7.52000E-04
1.448E+00	1.948389E+00	7.49000E-04
1.452E+00	1.948265E+00	7.46000E-04
1.456E+00	1.948143E+00	7.44000E-04
1.460E+00	1.948021E+00	7.41000E-04
1.464E+00	1.947901E+00	7.38000E-04
1.468E+00	1.947781E+00	7.35000E-04
1.472E+00	1.947662E+00	7.33000E-04
1.476E+00	1.947545E+00	7.30000E-04
1.480E+00	1.947429E+00	7.27000E-04
1.484E+00	1.947313E+00	7.25000E-04
1.488E+00	1.947199E+00	7.22000E-04
1.492E+00	1.947085E+00	7.19000E-04
1.496E+00	1.946973E+00	7.17000E-04
1.500E+00	1.946861E+00	7.14000E-04
1.504E+00	1.946750E+00	7.12000E-04
1.508E+00	1.946641E+00	7.09000E-04
1.512E+00	1.946532E+00	7.06000E-04
1.516E+00	1.946424E+00	7.04000E-04
1.520E+00	1.946317E+00	7.02000E-04
1.524E+00	1.946211E+00	6.99000E-04
1.528E+00	1.946106E+00	6.97000E-04
1.532E+00	1.946001E+00	6.94000E-04
1.536E+00	1.945898E+00	6.92000E-04
1.540E+00	1.945795E+00	6.89000E-04
1.544E+00	1.945693E+00	6.87000E-04
1.548E+00	1.945593E+00	6.85000E-04
1.552E+00	1.945492E+00	6.82000E-04
1.556E+00	1.945393E+00	6.80000E-04
1.560E+00	1.945295E+00	6.78000E-04
1.564E+00	1.945197E+00	6.75000E-04
1.568E+00	1.945100E+00	6.73000E-04
1.572E+00	1.945004E+00	6.71000E-04
1.576E+00	1.944908E+00	6.69000E-04
1.580E+00	1.944814E+00	6.66000E-04
1.584E+00	1.944720E+00	6.64000E-04
1.588E+00	1.944627E+00	6.62000E-04
1.592E+00	1.944534E+00	6.60000E-04
1.596E+00	1.944443E+00	6.58000E-04
1.600E+00	1.944352E+00	6.56000E-04
1.604E+00	1.944262E+00	6.53000E-04
1.608E+00	1.944172E+00	6.51000E-04
1.612E+00	1.944083E+00	6.49000E-04
1.616E+00	1.943995E+00	6.47000E-04
1.620E+00	1.943908E+00	6.45000E-04
1.624E+00	1.943821E+00	6.43000E-04
1.628E+00	1.943735E+00	6.41000E-04
1.632E+00	1.943649E+00	6.39000E-04
1.636E+00	1.943565E+00	6.37000E-04
1.640E+00	1.943480E+00	6.35000E-04
1.644E+00	1.943397E+00	6.33000E-04
1.648E+00	1.943314E+00	6.31000E-04
1.652E+00	1.943232E+00	6.29000E-04
1.656E+00	1.943150E+00	6.27000E-04
1.660E+00	1.943069E+00	6.25000E-04
1.664E+00	1.942989E+00	6.23000E-04
1.668E+00	1.942909E+00	6.21000E-04
1.672E+00	1.942830E+00	6.19000E-04
1.676E+00	1.942751E+00	6.18000E-04
1.680E+00	1.942673E+00	6.16000E-04
1.684E+00	1.942596E+00	6.14000E-04
1.688E+00	1.942519E+00	6.12000E-04
1.692E+00	1.942443E+00	6.10000E-04
1.696E+00	1.942367E+00	6.08000E-04
