Material: main / HfO2 / Bright
Optical constants. T. J. Bright, J. I. Watjen, Z. M. Zhang, C. Muratore, A. A. Voevodin. Optical properties of HfO2 thin films deposited by magnetron sputtering: From the visible to the far-infrared. Thin Solid Films 520, 6793â€“6802 (2012)[Calculation script (Python)]
Comments: Thin hafnia films of thicknesses from about 180 to 500 nm deposited on Si substrates using reactive magnetron sputtering.
Specs: {"substrate": "Si"}
wavelength (um)	n	k
3.8462e-01	2.0686e+00	1.0013e-06
3.9299e-01	2.0640e+00	1.0705e-06
4.0154e-01	2.0595e+00	1.1444e-06
4.1028e-01	2.0552e+00	1.2234e-06
4.1921e-01	2.0511e+00	1.3076e-06
4.2833e-01	2.0471e+00	1.3976e-06
4.3766e-01	2.0433e+00	1.4937e-06
4.4718e-01	2.0397e+00	1.5962e-06
4.5692e-01	2.0362e+00	1.7057e-06
4.6686e-01	2.0328e+00	1.8226e-06
4.7702e-01	2.0296e+00	1.9473e-06
4.8740e-01	2.0265e+00	2.0805e-06
4.9801e-01	2.0235e+00	2.2227e-06
5.0885e-01	2.0206e+00	2.3744e-06
5.1993e-01	2.0179e+00	2.5363e-06
5.3124e-01	2.0153e+00	2.7092e-06
5.4281e-01	2.0127e+00	2.8937e-06
5.5462e-01	2.0103e+00	3.0906e-06
5.6669e-01	2.0080e+00	3.3007e-06
5.7903e-01	2.0057e+00	3.5250e-06
5.9163e-01	2.0036e+00	3.7644e-06
6.0451e-01	2.0015e+00	4.0199e-06
6.1766e-01	1.9995e+00	4.2926e-06
6.3111e-01	1.9976e+00	4.5835e-06
6.4484e-01	1.9958e+00	4.8941e-06
6.5888e-01	1.9940e+00	5.2255e-06
6.7322e-01	1.9923e+00	5.5792e-06
6.8787e-01	1.9907e+00	5.9566e-06
7.0285e-01	1.9891e+00	6.3594e-06
7.1814e-01	1.9876e+00	6.7892e-06
7.3377e-01	1.9862e+00	7.2479e-06
7.4974e-01	1.9848e+00	7.7373e-06
7.6606e-01	1.9835e+00	8.2597e-06
7.8274e-01	1.9822e+00	8.8171e-06
7.9977e-01	1.9809e+00	9.4120e-06
8.1718e-01	1.9797e+00	1.0047e-05
8.3497e-01	1.9786e+00	1.0724e-05
8.5314e-01	1.9775e+00	1.1447e-05
8.7171e-01	1.9764e+00	1.2218e-05
8.9068e-01	1.9753e+00	1.3042e-05
9.1007e-01	1.9743e+00	1.3920e-05
9.2988e-01	1.9734e+00	1.4857e-05
9.5012e-01	1.9724e+00	1.5858e-05
9.7079e-01	1.9715e+00	1.6925e-05
9.9192e-01	1.9706e+00	1.8064e-05
1.0135e+00	1.9698e+00	1.9280e-05
1.0356e+00	1.9690e+00	2.0577e-05
1.0581e+00	1.9682e+00	2.1962e-05
1.0811e+00	1.9674e+00	2.3439e-05
1.1047e+00	1.9666e+00	2.5016e-05
1.1287e+00	1.9659e+00	2.6699e-05
1.1533e+00	1.9651e+00	2.8495e-05
1.1784e+00	1.9644e+00	3.0411e-05
1.2040e+00	1.9637e+00	3.2457e-05
1.2302e+00	1.9631e+00	3.4639e-05
1.2570e+00	1.9624e+00	3.6969e-05
1.2844e+00	1.9617e+00	3.9456e-05
1.3123e+00	1.9611e+00	4.2109e-05
1.3409e+00	1.9605e+00	4.4942e-05
1.3701e+00	1.9598e+00	4.7965e-05
1.3999e+00	1.9592e+00	5.1191e-05
1.4304e+00	1.9586e+00	5.4635e-05
1.4615e+00	1.9580e+00	5.8311e-05
1.4933e+00	1.9574e+00	6.2235e-05
1.5258e+00	1.9568e+00	6.6424e-05
1.5590e+00	1.9562e+00	7.0895e-05
1.5930e+00	1.9556e+00	7.5668e-05
1.6276e+00	1.9550e+00	8.0763e-05
1.6631e+00	1.9544e+00	8.6203e-05
1.6993e+00	1.9537e+00	9.2010e-05
1.7362e+00	1.9531e+00	9.8209e-05
1.7740e+00	1.9525e+00	1.0483e-04
1.8126e+00	1.9519e+00	1.1190e-04
1.8521e+00	1.9512e+00	1.1944e-04
1.8924e+00	1.9506e+00	1.2750e-04
1.9336e+00	1.9499e+00	1.3610e-04
1.9757e+00	1.9493e+00	1.4529e-04
2.0187e+00	1.9486e+00	1.5510e-04
2.0626e+00	1.9479e+00	1.6558e-04
2.1075e+00	1.9472e+00	1.7677e-04
2.1534e+00	1.9465e+00	1.8872e-04
2.2003e+00	1.9457e+00	2.0149e-04
2.2481e+00	1.9450e+00	2.1513e-04
2.2971e+00	1.9442e+00	2.2970e-04
2.3471e+00	1.9434e+00	2.4526e-04
2.3982e+00	1.9425e+00	2.6189e-04
2.4504e+00	1.9417e+00	2.7965e-04
2.5037e+00	1.9408e+00	2.9864e-04
2.5582e+00	1.9399e+00	3.1892e-04
2.6139e+00	1.9389e+00	3.4060e-04
2.6707e+00	1.9379e+00	3.6377e-04
2.7289e+00	1.9369e+00	3.8854e-04
2.7883e+00	1.9359e+00	4.1501e-04
2.8490e+00	1.9348e+00	4.4331e-04
2.9110e+00	1.9336e+00	4.7357e-04
2.9743e+00	1.9324e+00	5.0593e-04
3.0391e+00	1.9312e+00	5.4053e-04
3.1052e+00	1.9299e+00	5.7754e-04
3.1728e+00	1.9286e+00	6.1713e-04
3.2419e+00	1.9272e+00	6.5947e-04
3.3124e+00	1.9258e+00	7.0478e-04
3.3845e+00	1.9243e+00	7.5326e-04
3.4582e+00	1.9227e+00	8.0515e-04
3.5334e+00	1.9211e+00	8.6069e-04
3.6104e+00	1.9194e+00	9.2015e-04
3.6889e+00	1.9176e+00	9.8381e-04
3.7692e+00	1.9158e+00	1.0520e-03
3.8513e+00	1.9139e+00	1.1250e-03
3.9351e+00	1.9118e+00	1.2032e-03
4.0207e+00	1.9097e+00	1.2871e-03
4.1082e+00	1.9075e+00	1.3769e-03
4.1977e+00	1.9052e+00	1.4732e-03
4.2890e+00	1.9028e+00	1.5765e-03
4.3824e+00	1.9003e+00	1.6872e-03
4.4778e+00	1.8977e+00	1.8060e-03
4.5752e+00	1.8949e+00	1.9335e-03
4.6748e+00	1.8920e+00	2.0703e-03
4.7766e+00	1.8890e+00	2.2173e-03
4.8805e+00	1.8858e+00	2.3751e-03
4.9867e+00	1.8825e+00	2.5446e-03
5.0953e+00	1.8790e+00	2.7268e-03
5.2062e+00	1.8753e+00	2.9227e-03
5.3195e+00	1.8715e+00	3.1334e-03
5.4353e+00	1.8675e+00	3.3601e-03
5.5536e+00	1.8633e+00	3.6042e-03
5.6745e+00	1.8589e+00	3.8670e-03
5.7980e+00	1.8542e+00	4.1502e-03
5.9242e+00	1.8493e+00	4.4555e-03
6.0531e+00	1.8442e+00	4.7848e-03
6.1848e+00	1.8388e+00	5.1402e-03
6.3195e+00	1.8331e+00	5.5240e-03
6.4570e+00	1.8272e+00	5.9387e-03
6.5975e+00	1.8209e+00	6.3872e-03
6.7411e+00	1.8143e+00	6.8725e-03
6.8879e+00	1.8073e+00	7.3980e-03
7.0378e+00	1.7999e+00	7.9676e-03
7.1910e+00	1.7922e+00	8.5855e-03
7.3475e+00	1.7840e+00	9.2564e-03
7.5074e+00	1.7754e+00	9.9856e-03
7.6708e+00	1.7662e+00	1.0779e-02
7.8378e+00	1.7566e+00	1.1643e-02
8.0084e+00	1.7463e+00	1.2586e-02
8.1827e+00	1.7355e+00	1.3616e-02
8.3608e+00	1.7241e+00	1.4741e-02
8.5427e+00	1.7119e+00	1.5975e-02
8.7287e+00	1.6990e+00	1.7328e-02
8.9186e+00	1.6852e+00	1.8815e-02
9.1128e+00	1.6706e+00	2.0454e-02
9.3111e+00	1.6550e+00	2.2262e-02
9.5138e+00	1.6384e+00	2.4262e-02
9.7208e+00	1.6206e+00	2.6481e-02
9.9324e+00	1.6016e+00	2.8949e-02
1.0149e+01	1.5812e+00	3.1703e-02
1.0369e+01	1.5593e+00	3.4786e-02
1.0595e+01	1.5358e+00	3.8252e-02
1.0826e+01	1.5104e+00	4.2166e-02
1.1061e+01	1.4829e+00	4.6606e-02
1.1302e+01	1.4531e+00	5.1673e-02
1.1548e+01	1.4206e+00	5.7492e-02
1.1800e+01	1.3852e+00	6.4224e-02
1.2056e+01	1.3464e+00	7.2084e-02
1.2319e+01	1.3036e+00	8.1353e-02
1.2587e+01	1.2562e+00	9.2425e-02
1.2861e+01	1.2033e+00	1.0585e-01
1.3141e+01	1.1440e+00	1.2245e-01
1.3427e+01	1.0767e+00	1.4346e-01
1.3719e+01	9.9993e-01	1.7091e-01
1.4018e+01	9.1140e-01	2.0826e-01
1.4323e+01	8.0916e-01	2.6177e-01
1.4634e+01	6.9404e-01	3.4262e-01
1.4953e+01	5.7795e-01	4.6567e-01
1.5278e+01	4.8772e-01	6.3196e-01
1.5611e+01	4.3841e-01	8.2079e-01
1.5951e+01	4.2737e-01	1.0202e+00
1.6298e+01	4.6677e-01	1.2326e+00
1.6653e+01	6.2293e-01	1.4075e+00
1.7015e+01	7.0374e-01	1.3449e+00
1.7385e+01	5.9318e-01	1.4519e+00
1.7764e+01	5.8085e-01	1.6573e+00
1.8150e+01	6.3728e-01	1.8712e+00
1.8546e+01	7.5520e-01	2.0831e+00
1.8949e+01	9.5262e-01	2.2697e+00
1.9362e+01	1.2358e+00	2.3607e+00
1.9783e+01	1.5063e+00	2.2625e+00
2.0214e+01	1.5758e+00	2.0490e+00
2.0654e+01	1.4471e+00	1.9387e+00
2.1103e+01	1.2798e+00	2.0067e+00
2.1562e+01	1.1775e+00	2.1976e+00
2.2032e+01	1.1642e+00	2.4465e+00
2.2511e+01	1.2373e+00	2.7175e+00
2.3001e+01	1.3993e+00	2.9892e+00
2.3502e+01	1.6615e+00	3.2324e+00
2.4013e+01	2.0261e+00	3.3900e+00
2.4536e+01	2.4387e+00	3.3838e+00
2.5070e+01	2.7619e+00	3.1987e+00
2.5616e+01	2.8882e+00	2.9618e+00
2.6173e+01	2.8643e+00	2.8299e+00
2.6743e+01	2.8193e+00	2.8558e+00
2.7325e+01	2.8596e+00	2.9978e+00
2.7920e+01	3.0369e+00	3.1740e+00
2.8527e+01	3.3515e+00	3.2935e+00
2.9148e+01	3.7530e+00	3.2758e+00
2.9783e+01	4.1436e+00	3.0840e+00
3.0431e+01	4.4224e+00	2.7577e+00
3.1093e+01	4.5470e+00	2.3882e+00
3.1770e+01	4.5407e+00	2.0541e+00
3.2462e+01	4.4512e+00	1.7923e+00
3.3168e+01	4.3191e+00	1.6096e+00
3.3890e+01	4.1720e+00	1.5022e+00
3.4628e+01	4.0294e+00	1.4654e+00
3.5381e+01	3.9104e+00	1.4960e+00
3.6151e+01	3.8403e+00	1.5884e+00
3.6938e+01	3.8515e+00	1.7228e+00
3.7742e+01	3.9696e+00	1.8519e+00
3.8564e+01	4.1836e+00	1.9063e+00
3.9403e+01	4.4273e+00	1.8356e+00
4.0261e+01	4.6159e+00	1.6548e+00
4.1137e+01	4.7091e+00	1.4287e+00
4.2032e+01	4.7201e+00	1.2148e+00
4.2947e+01	4.6815e+00	1.0375e+00
4.3882e+01	4.6196e+00	8.9892e-01
4.4837e+01	4.5500e+00	7.9261e-01
4.5813e+01	4.4809e+00	7.1110e-01
4.6810e+01	4.4159e+00	6.4806e-01
4.7829e+01	4.3562e+00	5.9870e-01
4.8870e+01	4.3024e+00	5.5953e-01
4.9934e+01	4.2541e+00	5.2801e-01
5.1021e+01	4.2110e+00	5.0226e-01
5.2131e+01	4.1727e+00	4.8091e-01
5.3266e+01	4.1385e+00	4.6294e-01
5.4425e+01	4.1082e+00	4.4757e-01
5.5610e+01	4.0812e+00	4.3418e-01
5.6820e+01	4.0572e+00	4.2233e-01
5.8057e+01	4.0359e+00	4.1165e-01
5.9320e+01	4.0169e+00	4.0186e-01
6.0611e+01	4.0000e+00	3.9274e-01
6.1931e+01	3.9849e+00	3.8413e-01
6.3279e+01	3.9714e+00	3.7589e-01
6.4656e+01	3.9592e+00	3.6793e-01
6.6063e+01	3.9483e+00	3.6017e-01
6.7501e+01	3.9384e+00	3.5256e-01
6.8970e+01	3.9295e+00	3.4507e-01
7.0471e+01	3.9213e+00	3.3766e-01
7.2005e+01	3.9139e+00	3.3033e-01
7.3572e+01	3.9070e+00	3.2307e-01
7.5174e+01	3.9007e+00	3.1588e-01
7.6810e+01	3.8949e+00	3.0876e-01
7.8482e+01	3.8894e+00	3.0171e-01
8.0190e+01	3.8843e+00	2.9473e-01
8.1935e+01	3.8795e+00	2.8785e-01
8.3719e+01	3.8750e+00	2.8106e-01
8.5541e+01	3.8707e+00	2.7437e-01
8.7403e+01	3.8666e+00	2.6779e-01
8.9305e+01	3.8627e+00	2.6132e-01
9.1249e+01	3.8590e+00	2.5497e-01
9.3235e+01	3.8555e+00	2.4875e-01
9.5264e+01	3.8521e+00	2.4265e-01
9.7338e+01	3.8488e+00	2.3669e-01
9.9456e+01	3.8457e+00	2.3086e-01
1.0162e+02	3.8426e+00	2.2516e-01
1.0383e+02	3.8397e+00	2.1960e-01
1.0609e+02	3.8369e+00	2.1417e-01
1.0840e+02	3.8343e+00	2.0888e-01
1.1076e+02	3.8317e+00	2.0373e-01
1.1317e+02	3.8291e+00	1.9870e-01
1.1564e+02	3.8267e+00	1.9381e-01
1.1815e+02	3.8244e+00	1.8904e-01
1.2072e+02	3.8221e+00	1.8440e-01
1.2335e+02	3.8200e+00	1.7988e-01
1.2604e+02	3.8179e+00	1.7549e-01
1.2878e+02	3.8159e+00	1.7121e-01
1.3158e+02	3.8139e+00	1.6705e-01
1.3445e+02	3.8120e+00	1.6300e-01
1.3737e+02	3.8102e+00	1.5907e-01
1.4036e+02	3.8085e+00	1.5523e-01
1.4342e+02	3.8068e+00	1.5151e-01
1.4654e+02	3.8052e+00	1.4788e-01
1.4973e+02	3.8036e+00	1.4435e-01
1.5299e+02	3.8021e+00	1.4092e-01
1.5632e+02	3.8007e+00	1.3757e-01
1.5972e+02	3.7993e+00	1.3432e-01
1.6320e+02	3.7980e+00	1.3116e-01
1.6675e+02	3.7967e+00	1.2807e-01
1.7038e+02	3.7954e+00	1.2507e-01
1.7409e+02	3.7942e+00	1.2215e-01
1.7787e+02	3.7931e+00	1.1931e-01
1.8175e+02	3.7920e+00	1.1654e-01
1.8570e+02	3.7909e+00	1.1384e-01
1.8974e+02	3.7899e+00	1.1121e-01
1.9387e+02	3.7889e+00	1.0865e-01
1.9809e+02	3.7880e+00	1.0616e-01
2.0240e+02	3.7871e+00	1.0373e-01
2.0681e+02	3.7862e+00	1.0136e-01
2.1131e+02	3.7854e+00	9.9050e-02
2.1591e+02	3.7846e+00	9.6798e-02
2.2061e+02	3.7838e+00	9.4603e-02
2.2541e+02	3.7831e+00	9.2463e-02
2.3032e+02	3.7824e+00	9.0376e-02
2.3533e+02	3.7817e+00	8.8340e-02
2.4045e+02	3.7811e+00	8.6354e-02
2.4569e+02	3.7804e+00	8.4417e-02
2.5103e+02	3.7798e+00	8.2527e-02
2.5650e+02	3.7793e+00	8.0682e-02
2.6208e+02	3.7787e+00	7.8882e-02
2.6778e+02	3.7782e+00	7.7126e-02
2.7361e+02	3.7777e+00	7.5411e-02
2.7957e+02	3.7772e+00	7.3738e-02
2.8565e+02	3.7767e+00	7.2104e-02
2.9187e+02	3.7762e+00	7.0509e-02
2.9822e+02	3.7758e+00	6.8951e-02
3.0471e+02	3.7754e+00	6.7430e-02
3.1135e+02	3.7750e+00	6.5944e-02
3.1812e+02	3.7746e+00	6.4494e-02
3.2505e+02	3.7743e+00	6.3076e-02
3.3212e+02	3.7739e+00	6.1692e-02
3.3935e+02	3.7736e+00	6.0340e-02
3.4674e+02	3.7733e+00	5.9019e-02
3.5428e+02	3.7729e+00	5.7728e-02
3.6199e+02	3.7726e+00	5.6467e-02
3.6987e+02	3.7724e+00	5.5234e-02
3.7792e+02	3.7721e+00	5.4030e-02
3.8615e+02	3.7718e+00	5.2853e-02
3.9455e+02	3.7716e+00	5.1703e-02
4.0314e+02	3.7713e+00	5.0579e-02
4.1192e+02	3.7711e+00	4.9480e-02
4.2088e+02	3.7709e+00	4.8406e-02
4.3004e+02	3.7707e+00	4.7355e-02
4.3940e+02	3.7705e+00	4.6329e-02
4.4897e+02	3.7703e+00	4.5325e-02
4.5874e+02	3.7701e+00	4.4344e-02
4.6872e+02	3.7699e+00	4.3385e-02
4.7893e+02	3.7698e+00	4.2447e-02
4.8935e+02	3.7696e+00	4.1530e-02
5.0000e+02	3.7694e+00	4.0633e-02
