Material: main / ZnSe / Patwardhan
Optical constants. G. N. Patwardhan, J. S. Ginsberg, C. Y. Chen, M. M. Jadidi, A. L. Gaeta. Nonlinear refractive index of solids in mid-infrared, Opt. Lett. 46, 1824 (2021)
Comments: 100 fs. Spectrally resolved two-beam coupling.
Specs: {"n2_method": "SRTBC", "pulse_duration": "100e-15"}
wavelength (um)	n	2
2.3	1.13e-18
3.5	1.00e-18
4.5	1.19e-18
8.3	8.70e-19
