Material: main / ZnSe / Sheik-Bahae
Optical constants. M. Sheik-Bahae, D. C. Hutchings, D. J. Hagan, E. W. Van Stryland. Dispersion of bound electron nonlinear refraction in solids, IEEE J. Quantum Electron. 27, 1296 (1991)
Comments: 27 ps @ 0.532 µm, 40 ps @ 1.064 µm. Z-scan.
Specs: {"n2_method": "Z-scan", "pulse_duration": "27e-12 40e-12"}
wavelength (um)	n	2
0.532	-6.24e-18
1.064	2.87e-18
