Material: main / ZnSe / Werner
Optical constants. K. Werner, M. G. Hastings, A. Schweinsberg, B. L. Wilmer, D. Austin, C. M. Wolfe, M. Kolesik, T. R. Ensley, L. Vanderhoef, A. Valenzuela, E. Chowdhury. Ultrafast mid-infrared high harmonic and supercontinuum generation with n2 characterization in zinc selenide, Opt. Express 27, 2867 (2019)
Comments: 260 fs. Z-scan.
Specs: {"n2_method": "Z-scan", "pulse_duration": "260e-15"}
wavelength (um)	n	2
3.9	1.20e-18
