Material: main / MgAl2O4 / Flom
Optical constants. S. R. Flom, G. Beadie, S. S. Bayya, B. Shaw, J. M. Auxier. Ultrafast Z-scan measurements of nonlinear optical constants of window materials at 772, 1030, and 1550 nm, Appl. Opt. 54, F123 (2015)
Comments: 140 fs @ 1030 nm, 97 fs @ 1550 nm. Z-scan.
Specs: {"n2_method": "Z-scan", "pulse_duration": "140e-15 97e-15"}
wavelength (um)	n	2
1.030	3.32e-20
1.550	4.16e-20
