Material: mixed crystals / SrNb2O6-BaNb2O6 / Jansonas
Optical constants. G. Jansonas, R. Budriūnas, M. Vengris, A. Varanavičius. Interferometric measurements of nonlinear refractive index in the infrared spectral range, Opt. Express 30, 30507–30524 (2022)
Comments: Polydomain single crystal Sr0.61Ba0.39Nb2O6 (SBN:61). Polar angle (θ): 90°, azimuthal angle (φ): 0°. 230 fs, 170 fs and 190 fs at 1.03 μm, 2.2 μm and 3.2 μm, respectively. Fourier Interferometry.
Specs: {"n2_method": "FI", "pulse_duration": "230e-15 170e-15 190e-15"}
wavelength (um)	n	2
1.03	6.1e-19
2.2	8.7e-19
3.2	5.8e-19
