Material: main / Ag / Ferrera-501K
Optical constants. M. Ferrera, M. Magnozzi, F. Bisio, M. Canepa. Temperature-dependent permittivity of silver and implications for thermoplasmonics, Phys. Rev. Mater., 3, 105201 (2019) (See Supplemental Material)
Comments: 501 K (228 °C). Optically thick and morphologically flat polycrystalline Ag film, deposited by molecular beam epitaxy on a silicon wafer with a native oxide substrate.The supplemental material of the original publication provides extra information by including additional data for 25 temperatures within the range of 298–600 K.
Specs: {"n_is_absolute": true, "wavelength_is_vacuum": true, "temperature": "501 K", "substrate": "Si/SiO2"}
wavelength (um)	n	k
0.245202	1.162152	1.396190
0.248384	1.183897	1.405203
0.251567	1.207472	1.412086
0.254751	1.234686	1.415363
0.257934	1.264198	1.417148
0.261118	1.294984	1.417676
0.264302	1.327595	1.414395
0.267486	1.359317	1.408559
0.270671	1.389947	1.399166
0.273856	1.418268	1.386335
0.277041	1.446615	1.366739
0.280226	1.473008	1.341338
0.283412	1.495425	1.310918
0.286597	1.514421	1.273915
0.289783	1.527179	1.231577
0.292970	1.534581	1.182469
0.296156	1.532997	1.129016
0.299343	1.521705	1.069727
0.302530	1.497420	1.004463
0.305717	1.458798	0.945591
0.308905	1.405944	0.890741
0.312092	1.346715	0.842112
0.315280	1.279536	0.797091
0.318468	1.206070	0.748846
0.321656	1.109738	0.698164
0.324844	0.992410	0.654389
0.328033	0.845094	0.631782
0.331222	0.675438	0.641469
0.334411	0.503685	0.697068
0.337600	0.360080	0.806741
0.340789	0.266179	0.938392
0.343978	0.211922	1.059096
0.347168	0.179418	1.170038
0.350358	0.160004	1.260306
0.353547	0.145353	1.346921
0.356737	0.134336	1.424828
0.359928	0.126094	1.494167
0.363118	0.119809	1.557883
0.366308	0.114925	1.618457
0.369499	0.111092	1.677299
0.372689	0.108129	1.734226
0.375880	0.105889	1.788907
0.379071	0.104246	1.841046
0.382262	0.103084	1.890466
0.385453	0.102287	1.937434
0.388644	0.101785	1.982309
0.391836	0.101531	2.025416
0.395027	0.101483	2.067044
0.398219	0.101607	2.107459
0.401410	0.101873	2.146904
0.404602	0.102252	2.185603
0.407793	0.102722	2.223763
0.410985	0.103258	2.261569
0.414177	0.103849	2.299060
0.417369	0.104486	2.336165
0.420561	0.105161	2.372813
0.423753	0.105867	2.408941
0.426945	0.106598	2.444485
0.430137	0.107347	2.479387
0.433329	0.108109	2.513614
0.436521	0.108882	2.547206
0.439713	0.109664	2.580214
0.442906	0.110452	2.612687
0.446098	0.111247	2.644672
0.449290	0.112045	2.676210
0.452482	0.112846	2.707343
0.455675	0.113648	2.738110
0.458867	0.114451	2.768548
0.462059	0.115254	2.798692
0.465251	0.116054	2.828576
0.468444	0.116853	2.858230
0.471636	0.117649	2.887666
0.474828	0.118442	2.916896
0.478020	0.119233	2.945927
0.481212	0.120021	2.974770
0.484405	0.120807	3.003431
0.487597	0.121590	3.031921
0.490789	0.122370	3.060245
0.493981	0.123149	3.088413
0.497173	0.123924	3.116430
0.500365	0.124698	3.144305
0.503556	0.125468	3.172043
0.506748	0.126237	3.199650
0.509940	0.127003	3.227134
0.513131	0.127767	3.254500
0.516323	0.128529	3.281754
0.519515	0.129288	3.308901
0.522706	0.130046	3.335947
0.525897	0.130801	3.362896
0.529088	0.131554	3.389754
0.532279	0.132305	3.416526
0.535470	0.133054	3.443213
0.538661	0.133801	3.469814
0.541852	0.134547	3.496329
0.545043	0.135291	3.522757
0.548233	0.136035	3.549096
0.551424	0.136778	3.575347
0.554614	0.137520	3.601508
0.557804	0.138262	3.627578
0.560994	0.139004	3.653557
0.564184	0.139746	3.679445
0.567374	0.140488	3.705239
0.570563	0.141230	3.730940
0.573753	0.141973	3.756546
0.576942	0.142717	3.782058
0.580131	0.143462	3.807474
0.583320	0.144208	3.832794
0.586509	0.144955	3.858016
0.589697	0.145703	3.883142
0.592886	0.146453	3.908169
0.596074	0.147205	3.933096
0.599262	0.147958	3.957927
0.602449	0.148714	3.982667
0.605637	0.149470	4.007323
0.608824	0.150228	4.031903
0.612012	0.150987	4.056412
0.615199	0.151747	4.080858
0.618385	0.152507	4.105247
0.621572	0.153267	4.129585
0.624758	0.154027	4.153879
0.627944	0.154786	4.178133
0.631130	0.155545	4.202354
0.634316	0.156303	4.226549
0.637501	0.157060	4.250721
0.640686	0.157815	4.274876
0.643871	0.158568	4.299021
0.647055	0.159319	4.323159
0.650240	0.160068	4.347297
0.653424	0.160815	4.371438
0.656608	0.161559	4.395589
0.659791	0.162300	4.419753
0.662974	0.163038	4.443934
0.666157	0.163773	4.468138
0.669340	0.164504	4.492369
0.672522	0.165231	4.516631
0.675704	0.165955	4.540923
0.678886	0.166675	4.565243
0.682067	0.167392	4.589588
0.685248	0.168105	4.613957
0.688429	0.168814	4.638346
0.691610	0.169520	4.662755
0.694790	0.170222	4.687182
0.697970	0.170922	4.711623
0.701149	0.171617	4.736077
0.704328	0.172310	4.760542
0.707507	0.172999	4.785017
0.710686	0.173685	4.809500
0.713864	0.174368	4.833988
0.717042	0.175047	4.858480
0.720219	0.175724	4.882974
0.723396	0.176397	4.907468
0.726573	0.177067	4.931962
0.729749	0.177734	4.956452
0.732925	0.178398	4.980939
0.736100	0.179060	5.005419
0.739276	0.179718	5.029892
0.742450	0.180373	5.054355
0.745625	0.181026	5.078808
0.748799	0.181675	5.103250
0.751972	0.182322	5.127677
0.755145	0.182966	5.152091
0.758318	0.183607	5.176488
0.761490	0.184245	5.200867
0.764662	0.184880	5.225228
0.767834	0.185513	5.249569
0.771005	0.186143	5.273888
0.774175	0.186770	5.298185
0.777345	0.187395	5.322458
0.780515	0.188017	5.346706
0.783684	0.188636	5.370928
0.786853	0.189253	5.395122
0.790022	0.189867	5.419288
0.793190	0.190479	5.443425
0.796357	0.191087	5.467531
0.799524	0.191694	5.491605
0.802690	0.192298	5.515647
0.805856	0.192899	5.539655
0.809022	0.193498	5.563627
0.812187	0.194094	5.587564
0.815351	0.194688	5.611464
0.818515	0.195279	5.635327
0.821679	0.195868	5.659151
0.824842	0.196454	5.682935
0.828004	0.197038	5.706678
0.831167	0.197620	5.730380
0.834328	0.198199	5.754040
0.837489	0.198776	5.777657
0.840649	0.199350	5.801229
0.843809	0.199922	5.824757
0.846969	0.200491	5.848239
0.850127	0.201058	5.871674
0.853286	0.201623	5.895062
0.856443	0.202186	5.918401
0.859601	0.202747	5.941692
0.862757	0.203306	5.964933
0.865913	0.203864	5.988123
0.869069	0.204420	6.011264
0.872224	0.204975	6.034351
0.875378	0.205530	6.057386
0.878532	0.206084	6.080367
0.881685	0.206637	6.103296
0.884837	0.207190	6.126169
0.887989	0.207743	6.148986
0.891141	0.208296	6.171748
0.894292	0.208849	6.194453
0.897442	0.209402	6.217101
0.900591	0.209956	6.239690
0.903740	0.210511	6.262221
0.906888	0.211067	6.284694
0.910036	0.211624	6.307105
0.913183	0.212182	6.329457
0.916330	0.212742	6.351748
0.919475	0.213303	6.373977
0.922621	0.213866	6.396144
0.925765	0.214430	6.418248
0.928909	0.214997	6.440288
0.932052	0.215566	6.462266
0.935195	0.216137	6.484178
0.938336	0.216711	6.506026
0.941478	0.217287	6.527808
0.944618	0.217866	6.549524
0.947758	0.218448	6.571174
0.950897	0.219033	6.592756
0.954036	0.219621	6.614272
0.957173	0.220212	6.635718
0.960310	0.220807	6.657096
0.963447	0.221405	6.678405
0.966582	0.222007	6.699647
0.969717	0.222612	6.720829
0.972852	0.223221	6.741957
0.975985	0.223832	6.763039
0.979118	0.224447	6.784082
0.982250	0.225065	6.805092
0.985381	0.225686	6.826078
0.988512	0.226309	6.847046
0.991642	0.226935	6.868001
0.994771	0.227564	6.888951
0.997899	0.228195	6.909902
1.011663	0.230998	7.002320
1.018509	0.232407	7.048539
1.025352	0.233823	7.095000
1.032194	0.235246	7.141766
1.039034	0.236676	7.188896
1.045873	0.238109	7.236449
1.052711	0.239543	7.284475
1.059547	0.240978	7.332960
1.066382	0.242416	7.381844
1.073215	0.243857	7.431070
1.080048	0.245303	7.480579
1.086879	0.246754	7.530316
1.093710	0.248212	7.580228
1.100539	0.249678	7.630261
1.107368	0.251152	7.680365
1.114196	0.252636	7.730489
1.121023	0.254131	7.780584
1.127849	0.255637	7.830606
1.134675	0.257156	7.880506
1.141500	0.258688	7.930240
1.148325	0.260234	7.979765
1.155150	0.261794	8.029053
1.161974	0.263369	8.078113
1.168798	0.264956	8.126955
1.175622	0.266554	8.175589
1.182446	0.268164	8.224025
1.189270	0.269784	8.272276
1.196093	0.271414	8.320350
1.202917	0.273052	8.368257
1.209742	0.274698	8.416007
1.216566	0.276351	8.463608
1.223391	0.278011	8.511072
1.230216	0.279676	8.558405
1.237041	0.281347	8.605617
1.243867	0.283021	8.652715
1.250694	0.284700	8.699711
1.257522	0.286382	8.746610
1.264350	0.288068	8.793420
1.271179	0.289759	8.840151
1.278009	0.291454	8.886809
1.284840	0.293155	8.933402
1.291671	0.294861	8.979938
1.298504	0.296573	9.026423
1.305338	0.298292	9.072866
1.312174	0.300017	9.119272
1.319010	0.301748	9.165648
1.325849	0.303487	9.212004
1.332688	0.305233	9.258342
1.339529	0.306987	9.304669
1.346372	0.308750	9.350991
1.353216	0.310520	9.397311
1.360062	0.312300	9.443635
1.366910	0.314089	9.489968
1.373759	0.315887	9.536315
1.380611	0.317695	9.582681
1.387465	0.319513	9.629069
1.394320	0.321341	9.675485
1.401178	0.323180	9.721933
1.408038	0.325030	9.768418
1.414900	0.326891	9.814944
1.421765	0.328764	9.861515
1.428632	0.330648	9.908135
1.435502	0.332545	9.954810
1.442374	0.334454	10.001542
1.449249	0.336375	10.048336
