Material: main / Ag / Ferrera-600K
Optical constants. M. Ferrera, M. Magnozzi, F. Bisio, M. Canepa. Temperature-dependent permittivity of silver and implications for thermoplasmonics, Phys. Rev. Mater., 3, 105201 (2019) (See Supplemental Material)
Comments: 600 K (327 °C). Optically thick and morphologically flat polycrystalline Ag film, deposited by molecular beam epitaxy on a silicon wafer with a native oxide substrate.The supplemental material of the original publication provides extra information by including additional data for 25 temperatures within the range of 298–600 K.
Specs: {"n_is_absolute": true, "wavelength_is_vacuum": true, "temperature": "600 K", "substrate": "Si/SiO2"}
wavelength (um)	n	k
0.245202	1.147419	1.408419
0.248384	1.174499	1.412138
0.251567	1.199940	1.417383
0.254751	1.226566	1.420427
0.257934	1.256207	1.418951
0.261118	1.285325	1.416523
0.264302	1.316167	1.409949
0.267486	1.344622	1.402837
0.270671	1.373044	1.391498
0.273856	1.399932	1.376344
0.277041	1.425391	1.356146
0.280226	1.449469	1.329791
0.283412	1.468202	1.299696
0.286597	1.482561	1.263327
0.289783	1.491452	1.219948
0.292970	1.493106	1.170417
0.296156	1.484148	1.117554
0.299343	1.465143	1.059975
0.302530	1.431422	1.000195
0.305717	1.381865	0.948845
0.308905	1.315879	0.902509
0.312092	1.240495	0.869929
0.315280	1.157740	0.853582
0.318468	1.080478	0.847375
0.321656	1.001204	0.845149
0.324844	0.928161	0.843402
0.328033	0.842808	0.844727
0.331222	0.745881	0.844575
0.334411	0.640230	0.853011
0.337600	0.528287	0.889455
0.340789	0.423541	0.955277
0.343978	0.337187	1.037832
0.347168	0.270128	1.131157
0.350358	0.223215	1.214408
0.353547	0.188705	1.303188
0.356737	0.165096	1.384862
0.359928	0.149296	1.457103
0.363118	0.138490	1.523224
0.366308	0.130621	1.586163
0.369499	0.124217	1.647544
0.372689	0.118784	1.706971
0.375880	0.114245	1.763904
0.379071	0.110536	1.817869
0.382262	0.107593	1.868568
0.385453	0.105326	1.916355
0.388644	0.103633	1.961718
0.391836	0.102423	2.005094
0.395027	0.101618	2.046874
0.398219	0.101154	2.087418
0.401410	0.100971	2.127055
0.404602	0.101018	2.166089
0.407793	0.101249	2.204803
0.410985	0.101622	2.243444
0.414177	0.102109	2.282014
0.417369	0.102691	2.320331
0.420561	0.103353	2.358222
0.423753	0.104078	2.395521
0.426945	0.104850	2.432075
0.430137	0.105657	2.467738
0.433329	0.106486	2.502423
0.436521	0.107331	2.536198
0.439713	0.108191	2.569159
0.442906	0.109061	2.601397
0.446098	0.109938	2.632996
0.449290	0.110820	2.664036
0.452482	0.111704	2.694594
0.455675	0.112587	2.724742
0.458867	0.113468	2.754548
0.462059	0.114343	2.784081
0.465251	0.115212	2.813401
0.468444	0.116072	2.842562
0.471636	0.116924	2.871579
0.474828	0.117768	2.900456
0.478020	0.118603	2.929198
0.481212	0.119432	2.957809
0.484405	0.120253	2.986293
0.487597	0.121067	3.014655
0.490789	0.121875	3.042898
0.493981	0.122676	3.071027
0.497173	0.123471	3.099044
0.500365	0.124261	3.126953
0.503556	0.125045	3.154757
0.506748	0.125824	3.182460
0.509940	0.126597	3.210064
0.513131	0.127366	3.237573
0.516323	0.128130	3.264989
0.519515	0.128890	3.292316
0.522706	0.129646	3.319554
0.525897	0.130397	3.346708
0.529088	0.131145	3.373780
0.532279	0.131889	3.400771
0.535470	0.132630	3.427683
0.538661	0.133368	3.454515
0.541852	0.134103	3.481268
0.545043	0.134836	3.507940
0.548233	0.135566	3.534532
0.551424	0.136294	3.561042
0.554614	0.137020	3.587470
0.557804	0.137745	3.613817
0.560994	0.138468	3.640081
0.564184	0.139190	3.666263
0.567374	0.139912	3.692361
0.570563	0.140632	3.718377
0.573753	0.141352	3.744308
0.576942	0.142072	3.770155
0.580131	0.142791	3.795918
0.583320	0.143511	3.821596
0.586509	0.144231	3.847189
0.589697	0.144951	3.872696
0.592886	0.145672	3.898118
0.596074	0.146393	3.923453
0.599262	0.147116	3.948703
0.602449	0.147839	3.973875
0.605637	0.148562	3.998972
0.608824	0.149287	4.024002
0.612012	0.150012	4.048970
0.615199	0.150737	4.073880
0.618385	0.151462	4.098738
0.621572	0.152187	4.123550
0.624758	0.152912	4.148320
0.627944	0.153636	4.173052
0.631130	0.154360	4.197753
0.634316	0.155084	4.222425
0.637501	0.155806	4.247075
0.640686	0.156527	4.271705
0.643871	0.157247	4.296321
0.647055	0.157966	4.320927
0.650240	0.158684	4.345526
0.653424	0.159399	4.370123
0.656608	0.160114	4.394722
0.659791	0.160826	4.419326
0.662974	0.161537	4.443939
0.666157	0.162245	4.468565
0.669340	0.162952	4.493207
0.672522	0.163656	4.517869
0.675704	0.164358	4.542548
0.678886	0.165058	4.567244
0.682067	0.165756	4.591952
0.685248	0.166452	4.616671
0.688429	0.167146	4.641399
0.691610	0.167839	4.666132
0.694790	0.168530	4.690869
0.697970	0.169220	4.715608
0.701149	0.169908	4.740345
0.704328	0.170595	4.765080
0.707507	0.171281	4.789809
0.710686	0.171966	4.814532
0.713864	0.172650	4.839245
0.717042	0.173333	4.863948
0.720219	0.174015	4.888637
0.723396	0.174696	4.913311
0.726573	0.175376	4.937969
0.729749	0.176056	4.962608
0.732925	0.176735	4.987226
0.736100	0.177414	5.011823
0.739276	0.178093	5.036395
0.742450	0.178771	5.060942
0.745625	0.179448	5.085461
0.748799	0.180126	5.109952
0.751972	0.180803	5.134413
0.755145	0.181481	5.158841
0.758318	0.182158	5.183236
0.761490	0.182835	5.207596
0.764662	0.183512	5.231919
0.767834	0.184190	5.256205
0.771005	0.184867	5.280451
0.774175	0.185545	5.304656
0.777345	0.186223	5.328820
0.780515	0.186901	5.352940
0.783684	0.187580	5.377015
0.786853	0.188259	5.401044
0.790022	0.188939	5.425026
0.793190	0.189619	5.448960
0.796357	0.190300	5.472843
0.799524	0.190981	5.496676
0.802690	0.191663	5.520456
0.805856	0.192345	5.544184
0.809022	0.193029	5.567856
0.812187	0.193713	5.591473
0.815351	0.194398	5.615034
0.818515	0.195084	5.638537
0.821679	0.195771	5.661981
0.824842	0.196458	5.685365
0.828004	0.197147	5.708688
0.831167	0.197836	5.731949
0.834328	0.198527	5.755148
0.837489	0.199219	5.778282
0.840649	0.199912	5.801352
0.843809	0.200606	5.824355
0.846969	0.201301	5.847292
0.850127	0.201997	5.870162
0.853286	0.202695	5.892962
0.856443	0.203394	5.915693
0.859601	0.204094	5.938354
0.862757	0.204795	5.960946
0.865913	0.205498	5.983475
0.869069	0.206202	6.005947
0.872224	0.206907	6.028366
0.875378	0.207612	6.050739
0.878532	0.208317	6.073070
0.881685	0.209024	6.095366
0.884837	0.209730	6.117631
0.887989	0.210436	6.139870
0.891141	0.211142	6.162088
0.894292	0.211848	6.184291
0.897442	0.212554	6.206483
0.900591	0.213259	6.228668
0.903740	0.213963	6.250852
0.906888	0.214666	6.273040
0.910036	0.215369	6.295235
0.913183	0.216070	6.317442
0.916330	0.216770	6.339666
0.919475	0.217469	6.361911
0.922621	0.218167	6.384181
0.925765	0.218862	6.406482
0.928909	0.219556	6.428815
0.932052	0.220249	6.451187
0.935195	0.220939	6.473600
0.938336	0.221627	6.496059
0.941478	0.222313	6.518567
0.944618	0.222997	6.541130
0.947758	0.223678	6.563750
0.950897	0.224357	6.586430
0.954036	0.225033	6.609176
0.957173	0.225706	6.631989
0.960310	0.226377	6.654875
0.963447	0.227044	6.677836
0.966582	0.227709	6.700873
0.969717	0.228371	6.723981
0.972852	0.229030	6.747155
0.975985	0.229687	6.770387
0.979118	0.230342	6.793674
0.982250	0.230996	6.817009
0.985381	0.231647	6.840387
0.988512	0.232297	6.863803
0.991642	0.232945	6.887251
0.994771	0.233593	6.910726
0.997899	0.234239	6.934222
1.011663	0.237079	7.037806
1.018509	0.238492	7.089356
1.025352	0.239907	7.140851
1.032194	0.241327	7.192244
1.039034	0.242752	7.243491
1.045873	0.244184	7.294548
1.052711	0.245626	7.345376
1.059547	0.247078	7.395963
1.066382	0.248541	7.446322
1.073215	0.250014	7.496461
1.080048	0.251497	7.546394
1.086879	0.252992	7.596128
1.093710	0.254497	7.645676
1.100539	0.256013	7.695045
1.107368	0.257541	7.744246
1.114196	0.259080	7.793287
1.121023	0.260630	7.842178
1.127849	0.262191	7.890928
1.134675	0.263765	7.939545
1.141500	0.265350	7.988036
1.148325	0.266947	8.036412
1.155150	0.268556	8.084678
1.161974	0.270177	8.132840
1.168798	0.271811	8.180900
1.175622	0.273457	8.228864
1.182446	0.275117	8.276733
1.189270	0.276789	8.324512
1.196093	0.278476	8.372203
1.202917	0.280175	8.419812
1.209742	0.281889	8.467339
1.216566	0.283617	8.514789
1.223391	0.285359	8.562165
1.230216	0.287116	8.609468
1.237041	0.288888	8.656704
1.243867	0.290675	8.703873
1.250694	0.292477	8.750980
1.257522	0.294294	8.798027
1.264350	0.296125	8.845017
1.271179	0.297972	8.891951
1.278009	0.299832	8.938834
1.284840	0.301707	8.985668
1.291671	0.303596	9.032454
1.298504	0.305498	9.079196
1.305338	0.307413	9.125896
1.312174	0.309342	9.172556
1.319010	0.311283	9.219178
1.325849	0.313238	9.265766
1.332688	0.315204	9.312321
1.339529	0.317183	9.358848
1.346372	0.319174	9.405348
1.353216	0.321177	9.451824
1.360062	0.323191	9.498279
1.366910	0.325217	9.544715
1.373759	0.327254	9.591135
1.380611	0.329302	9.637543
1.387465	0.331361	9.683940
1.394320	0.333431	9.730329
1.401178	0.335511	9.776712
1.408038	0.337601	9.823092
1.414900	0.339701	9.869471
1.421765	0.341811	9.915851
1.428632	0.343931	9.962235
1.435502	0.346061	10.008626
1.442374	0.348200	10.055024
1.449249	0.350348	10.101433
