Material: main / Ag / Ferrera-404K
Optical constants. M. Ferrera, M. Magnozzi, F. Bisio, M. Canepa. Temperature-dependent permittivity of silver and implications for thermoplasmonics, Phys. Rev. Mater., 3, 105201 (2019) (See Supplemental Material)
Comments: 404 K (131 °C). Optically thick and morphologically flat polycrystalline Ag film, deposited by molecular beam epitaxy on a silicon wafer with a native oxide substrate.The supplemental material of the original publication provides extra information by including additional data for 25 temperatures within the range of 298–600 K.
Specs: {"n_is_absolute": true, "wavelength_is_vacuum": true, "temperature": "404 K", "substrate": "Si/SiO2"}
wavelength (um)	n	k
0.245202	1.170719	1.352653
0.248384	1.185219	1.374931
0.251567	1.208206	1.387163
0.254751	1.237714	1.392318
0.257934	1.266192	1.399464
0.261118	1.297067	1.403833
0.264302	1.331859	1.402067
0.267486	1.364298	1.399314
0.270671	1.396426	1.392273
0.273856	1.426896	1.381299
0.277041	1.457533	1.363685
0.280226	1.486194	1.340591
0.283412	1.512282	1.311659
0.286597	1.534524	1.277278
0.289783	1.552539	1.237002
0.292970	1.566304	1.190435
0.296156	1.575042	1.137985
0.299343	1.578993	1.077091
0.302530	1.574871	1.005399
0.305717	1.559651	0.929227
0.308905	1.526398	0.838631
0.312092	1.472979	0.744037
0.315280	1.392567	0.653469
0.318468	1.288962	0.563400
0.321656	1.143542	0.475852
0.324844	0.947498	0.414390
0.328033	0.711554	0.404397
0.331222	0.472645	0.485921
0.334411	0.308323	0.652424
0.337600	0.224139	0.825244
0.340789	0.179114	0.971387
0.343978	0.153824	1.087072
0.347168	0.137485	1.190996
0.350358	0.127538	1.275337
0.353547	0.120239	1.355916
0.356737	0.114764	1.428813
0.359928	0.110369	1.494331
0.363118	0.106676	1.555156
0.366308	0.103466	1.613554
0.369499	0.100637	1.670750
0.372689	0.098201	1.726383
0.375880	0.096175	1.779961
0.379071	0.094574	1.831045
0.382262	0.093402	1.879352
0.385453	0.092634	1.925166
0.388644	0.092214	1.968895
0.391836	0.092086	2.010902
0.395027	0.092202	2.051517
0.398219	0.092518	2.091042
0.401410	0.092998	2.129753
0.404602	0.093607	2.167907
0.407793	0.094314	2.205742
0.410985	0.095092	2.243468
0.414177	0.095923	2.281091
0.417369	0.096797	2.318465
0.420561	0.097704	2.355448
0.423753	0.098637	2.391908
0.426945	0.099585	2.427722
0.430137	0.100542	2.462769
0.433329	0.101500	2.496980
0.436521	0.102458	2.530410
0.439713	0.103413	2.563136
0.442906	0.104364	2.595231
0.446098	0.105308	2.626764
0.449290	0.106246	2.657801
0.452482	0.107174	2.688402
0.455675	0.108092	2.718627
0.458867	0.108999	2.748530
0.462059	0.109894	2.778167
0.465251	0.110774	2.807588
0.468444	0.111641	2.836835
0.471636	0.112494	2.865920
0.474828	0.113334	2.894848
0.478020	0.114161	2.923621
0.481212	0.114976	2.952243
0.484405	0.115780	2.980718
0.487597	0.116573	3.009049
0.490789	0.117357	3.037239
0.493981	0.118130	3.065290
0.497173	0.118895	3.093206
0.500365	0.119651	3.120990
0.503556	0.120400	3.148643
0.506748	0.121140	3.176169
0.509940	0.121874	3.203569
0.513131	0.122601	3.230847
0.516323	0.123321	3.258003
0.519515	0.124036	3.285041
0.522706	0.124746	3.311962
0.525897	0.125450	3.338768
0.529088	0.126149	3.365462
0.532279	0.126845	3.392044
0.535470	0.127536	3.418518
0.538661	0.128224	3.444885
0.541852	0.128908	3.471149
0.545043	0.129589	3.497312
0.548233	0.130267	3.523376
0.551424	0.130943	3.549344
0.554614	0.131616	3.575218
0.557804	0.132287	3.601002
0.560994	0.132956	3.626695
0.564184	0.133624	3.652300
0.567374	0.134290	3.677821
0.570563	0.134956	3.703258
0.573753	0.135620	3.728613
0.576942	0.136283	3.753889
0.580131	0.136947	3.779087
0.583320	0.137609	3.804209
0.586509	0.138272	3.829256
0.589697	0.138935	3.854230
0.592886	0.139598	3.879133
0.596074	0.140261	3.903966
0.599262	0.140926	3.928732
0.602449	0.141591	3.953436
0.605637	0.142256	3.978082
0.608824	0.142923	4.002675
0.612012	0.143589	4.027220
0.615199	0.144257	4.051722
0.618385	0.144924	4.076185
0.621572	0.145591	4.100612
0.624758	0.146258	4.125009
0.627944	0.146925	4.149380
0.631130	0.147591	4.173728
0.634316	0.148255	4.198058
0.637501	0.148919	4.222374
0.640686	0.149581	4.246678
0.643871	0.150242	4.270975
0.647055	0.150902	4.295268
0.650240	0.151559	4.319561
0.653424	0.152215	4.343857
0.656608	0.152868	4.368160
0.659791	0.153519	4.392473
0.662974	0.154168	4.416799
0.666157	0.154814	4.441140
0.669340	0.155458	4.465501
0.672522	0.156098	4.489883
0.675704	0.156736	4.514287
0.678886	0.157371	4.538708
0.682067	0.158003	4.563147
0.685248	0.158632	4.587601
0.688429	0.159259	4.612068
0.691610	0.159883	4.636545
0.694790	0.160504	4.661032
0.697970	0.161123	4.685527
0.701149	0.161739	4.710026
0.704328	0.162352	4.734530
0.707507	0.162963	4.759036
0.710686	0.163572	4.783543
0.713864	0.164178	4.808048
0.717042	0.164781	4.832551
0.720219	0.165382	4.857050
0.723396	0.165981	4.881542
0.726573	0.166577	4.906028
0.729749	0.167171	4.930505
0.732925	0.167763	4.954972
0.736100	0.168352	4.979427
0.739276	0.168939	5.003870
0.742450	0.169523	5.028297
0.745625	0.170106	5.052709
0.748799	0.170686	5.077105
0.751972	0.171264	5.101482
0.755145	0.171839	5.125840
0.758318	0.172413	5.150177
0.761490	0.172984	5.174493
0.764662	0.173553	5.198785
0.767834	0.174120	5.223053
0.771005	0.174685	5.247295
0.774175	0.175248	5.271512
0.777345	0.175808	5.295701
0.780515	0.176367	5.319861
0.783684	0.176923	5.343991
0.786853	0.177478	5.368090
0.790022	0.178030	5.392158
0.793190	0.178580	5.416194
0.796357	0.179128	5.440195
0.799524	0.179675	5.464162
0.802690	0.180219	5.488093
0.805856	0.180761	5.511988
0.809022	0.181301	5.535845
0.812187	0.181839	5.559664
0.815351	0.182375	5.583444
0.818515	0.182909	5.607183
0.821679	0.183441	5.630882
0.824842	0.183972	5.654538
0.828004	0.184500	5.678152
0.831167	0.185026	5.701723
0.834328	0.185550	5.725250
0.837489	0.186073	5.748731
0.840649	0.186593	5.772166
0.843809	0.187112	5.795555
0.846969	0.187628	5.818897
0.850127	0.188143	5.842191
0.853286	0.188656	5.865436
0.856443	0.189167	5.888631
0.859601	0.189677	5.911776
0.862757	0.190185	5.934871
0.865913	0.190692	5.957913
0.869069	0.191198	5.980905
0.872224	0.191703	6.003843
0.875378	0.192208	6.026727
0.878532	0.192712	6.049557
0.881685	0.193215	6.072333
0.884837	0.193719	6.095053
0.887989	0.194222	6.117717
0.891141	0.194726	6.140324
0.894292	0.195230	6.162875
0.897442	0.195734	6.185368
0.900591	0.196239	6.207802
0.903740	0.196744	6.230177
0.906888	0.197250	6.252494
0.910036	0.197758	6.274749
0.913183	0.198266	6.296945
0.916330	0.198775	6.319079
0.919475	0.199286	6.341151
0.922621	0.199799	6.363162
0.925765	0.200313	6.385110
0.928909	0.200828	6.406994
0.932052	0.201346	6.428815
0.935195	0.201866	6.450572
0.938336	0.202387	6.472264
0.941478	0.202911	6.493891
0.944618	0.203437	6.515452
0.947758	0.203966	6.536947
0.950897	0.204497	6.558376
0.954036	0.205031	6.579738
0.957173	0.205568	6.601031
0.960310	0.206108	6.622257
0.963447	0.206650	6.643414
0.966582	0.207196	6.664505
0.969717	0.207745	6.685533
0.972852	0.208297	6.706504
0.975985	0.208851	6.727424
0.979118	0.209408	6.748297
0.982250	0.209968	6.769129
0.985381	0.210531	6.789925
0.988512	0.211096	6.810690
0.991642	0.211664	6.831427
0.994771	0.212234	6.852144
0.997899	0.212807	6.872843
1.011663	0.215354	6.963895
1.018509	0.216637	7.009248
1.025352	0.217929	7.054698
1.032194	0.219231	7.100290
1.039034	0.220541	7.146068
1.045873	0.221858	7.192077
1.052711	0.223181	7.238354
1.059547	0.224509	7.284905
1.066382	0.225844	7.331713
1.073215	0.227184	7.378760
1.080048	0.228531	7.426029
1.086879	0.229884	7.473502
1.093710	0.231244	7.521165
1.100539	0.232612	7.569001
1.107368	0.233987	7.616994
1.114196	0.235369	7.665129
1.121023	0.236760	7.713393
1.127849	0.238159	7.761770
1.134675	0.239566	7.810247
1.141500	0.240982	7.858810
1.148325	0.242406	7.907446
1.155150	0.243840	7.956142
1.161974	0.245283	8.004887
1.168798	0.246736	8.053666
1.175622	0.248198	8.102470
1.182446	0.249670	8.151285
1.189270	0.251152	8.200102
1.196093	0.252645	8.248907
1.202917	0.254148	8.297693
1.209742	0.255661	8.346447
1.216566	0.257186	8.395159
1.223391	0.258721	8.443820
1.230216	0.260267	8.492419
1.237041	0.261825	8.540947
1.243867	0.263395	8.589395
1.250694	0.264976	8.637754
1.257522	0.266568	8.686015
1.264350	0.268172	8.734169
1.271179	0.269788	8.782207
1.278009	0.271416	8.830122
1.284840	0.273054	8.877905
1.291671	0.274705	8.925548
1.298504	0.276366	8.973043
1.305338	0.278039	9.020384
1.312174	0.279723	9.067560
1.319010	0.281419	9.114566
1.325849	0.283126	9.161395
1.332688	0.284844	9.208041
1.339529	0.286573	9.254511
1.346372	0.288312	9.300825
1.353216	0.290060	9.346997
1.360062	0.291817	9.393043
1.366910	0.293581	9.438980
1.373759	0.295353	9.484821
1.380611	0.297131	9.530585
1.387465	0.298915	9.576284
1.394320	0.300704	9.621933
1.401178	0.302497	9.667547
1.408038	0.304294	9.713141
1.414900	0.306095	9.758727
1.421765	0.307898	9.804319
1.428632	0.309703	9.849932
1.435502	0.311510	9.895579
1.442374	0.313317	9.941272
1.449249	0.315125	9.987024
