Material: main / Ag / Ferrera-298K
Optical constants. M. Ferrera, M. Magnozzi, F. Bisio, M. Canepa. Temperature-dependent permittivity of silver and implications for thermoplasmonics, Phys. Rev. Mater., 3, 105201 (2019) (See Supplemental Material)
Comments: 298 K (25 °C). Optically thick and morphologically flat polycrystalline Ag film, deposited by molecular beam epitaxy on a silicon wafer with a native oxide substrate.The supplemental material of the original publication provides extra information by including additional data for 25 temperatures within the range of 298–600 K.
Specs: {"n_is_absolute": true, "wavelength_is_vacuum": true, "temperature": "298 K", "substrate": "Si/SiO2"}
wavelength (um)	n	k
0.245202	1.168773	1.331022
0.248384	1.184909	1.352390
0.251567	1.208012	1.365649
0.254751	1.236561	1.373296
0.257934	1.266081	1.380957
0.261118	1.295747	1.388624
0.264302	1.332088	1.387543
0.267486	1.365779	1.386098
0.270671	1.397479	1.382323
0.273856	1.430565	1.371857
0.277041	1.462390	1.356414
0.280226	1.493032	1.335003
0.283412	1.521520	1.308001
0.286597	1.548117	1.276244
0.289783	1.573846	1.240198
0.292970	1.597032	1.200512
0.296156	1.622041	1.151580
0.299343	1.652347	1.081758
0.302530	1.674244	0.981291
0.305717	1.670761	0.862526
0.308905	1.632069	0.729033
0.312092	1.564974	0.603757
0.315280	1.473780	0.478805
0.318468	1.328991	0.327906
0.321656	1.058416	0.205534
0.324844	0.769420	0.194293
0.328033	0.508378	0.278807
0.331222	0.287389	0.479734
0.334411	0.197050	0.685981
0.337600	0.157490	0.850140
0.340789	0.136119	0.984005
0.343978	0.124166	1.087744
0.347168	0.115660	1.184273
0.350358	0.110334	1.263474
0.353547	0.106046	1.339786
0.356737	0.102673	1.409608
0.359928	0.099932	1.473051
0.363118	0.097604	1.532351
0.366308	0.095557	1.589396
0.369499	0.093738	1.645204
0.372689	0.092181	1.699454
0.375880	0.090922	1.751718
0.379071	0.089990	1.801611
0.382262	0.089405	1.848890
0.385453	0.089159	1.893827
0.388644	0.089206	1.936805
0.391836	0.089498	1.978165
0.395027	0.089992	2.018219
0.398219	0.090652	2.057249
0.401410	0.091443	2.095516
0.404602	0.092337	2.133262
0.407793	0.093306	2.170709
0.410985	0.094324	2.208056
0.414177	0.095378	2.245305
0.417369	0.096460	2.282315
0.420561	0.097560	2.318949
0.423753	0.098674	2.355078
0.426945	0.099793	2.390584
0.430137	0.100913	2.425350
0.433329	0.102027	2.459308
0.436521	0.103134	2.492505
0.439713	0.104232	2.525011
0.442906	0.105321	2.556890
0.446098	0.106400	2.588204
0.449290	0.107467	2.619009
0.452482	0.108521	2.649361
0.455675	0.109561	2.679311
0.458867	0.110588	2.708909
0.462059	0.111599	2.738202
0.465251	0.112594	2.767234
0.468444	0.113572	2.796050
0.471636	0.114533	2.824689
0.474828	0.115478	2.853166
0.478020	0.116405	2.881487
0.481212	0.117318	2.909654
0.484405	0.118215	2.937672
0.487597	0.119098	2.965543
0.490789	0.119967	2.993271
0.493981	0.120824	3.020858
0.497173	0.121668	3.048307
0.500365	0.122500	3.075621
0.503556	0.123320	3.102804
0.506748	0.124130	3.129856
0.509940	0.124930	3.156781
0.513131	0.125719	3.183582
0.516323	0.126500	3.210259
0.519515	0.127271	3.236815
0.522706	0.128034	3.263253
0.525897	0.128789	3.289575
0.529088	0.129536	3.315781
0.532279	0.130276	3.341875
0.535470	0.131008	3.367858
0.538661	0.131735	3.393735
0.541852	0.132454	3.419510
0.545043	0.133168	3.445186
0.548233	0.133876	3.470766
0.551424	0.134578	3.496253
0.554614	0.135274	3.521651
0.557804	0.135966	3.546964
0.560994	0.136653	3.572194
0.564184	0.137334	3.597344
0.567374	0.138012	3.622416
0.570563	0.138685	3.647415
0.573753	0.139354	3.672341
0.576942	0.140020	3.697198
0.580131	0.140682	3.721989
0.583320	0.141340	3.746716
0.586509	0.141995	3.771381
0.589697	0.142647	3.795987
0.592886	0.143296	3.820536
0.596074	0.143942	3.845029
0.599262	0.144586	3.869471
0.602449	0.145228	3.893861
0.605637	0.145867	3.918203
0.608824	0.146504	3.942498
0.612012	0.147140	3.966747
0.615199	0.147772	3.990954
0.618385	0.148403	4.015120
0.621572	0.149031	4.039246
0.624758	0.149657	4.063334
0.627944	0.150280	4.087386
0.631130	0.150900	4.111402
0.634316	0.151518	4.135387
0.637501	0.152133	4.159340
0.640686	0.152745	4.183262
0.643871	0.153354	4.207156
0.647055	0.153960	4.231023
0.650240	0.154563	4.254864
0.653424	0.155162	4.278681
0.656608	0.155759	4.302474
0.659791	0.156352	4.326246
0.662974	0.156941	4.349998
0.666157	0.157527	4.373730
0.669340	0.158110	4.397444
0.672522	0.158689	4.421141
0.675704	0.159265	4.444822
0.678886	0.159836	4.468487
0.682067	0.160404	4.492136
0.685248	0.160969	4.515770
0.688429	0.161530	4.539390
0.691610	0.162087	4.562996
0.694790	0.162640	4.586588
0.697970	0.163189	4.610166
0.701149	0.163734	4.633732
0.704328	0.164276	4.657284
0.707507	0.164814	4.680824
0.710686	0.165348	4.704353
0.713864	0.165877	4.727869
0.717042	0.166403	4.751375
0.720219	0.166925	4.774869
0.723396	0.167443	4.798352
0.726573	0.167957	4.821826
0.729749	0.168467	4.845289
0.732925	0.168972	4.868742
0.736100	0.169474	4.892186
0.739276	0.169971	4.915621
0.742450	0.170465	4.939046
0.745625	0.170954	4.962463
0.748799	0.171439	4.985872
0.751972	0.171919	5.009272
0.755145	0.172396	5.032665
0.758318	0.172868	5.056050
0.761490	0.173336	5.079428
0.764662	0.173800	5.102799
0.767834	0.174260	5.126162
0.771005	0.174715	5.149519
0.774175	0.175166	5.172870
0.777345	0.175613	5.196214
0.780515	0.176055	5.219552
0.783684	0.176493	5.242884
0.786853	0.176926	5.266211
0.790022	0.177356	5.289533
0.793190	0.177780	5.312849
0.796357	0.178201	5.336160
0.799524	0.178617	5.359467
0.802690	0.179028	5.382769
0.805856	0.179435	5.406066
0.809022	0.179838	5.429359
0.812187	0.180236	5.452648
0.815351	0.180630	5.475933
0.818515	0.181019	5.499214
0.821679	0.181404	5.522492
0.824842	0.181784	5.545766
0.828004	0.182159	5.569037
0.831167	0.182530	5.592304
0.834328	0.182897	5.615569
0.837489	0.183259	5.638831
0.840649	0.183617	5.662091
0.843809	0.183970	5.685347
0.846969	0.184318	5.708601
0.850127	0.184662	5.731853
0.853286	0.185001	5.755103
0.856443	0.185336	5.778351
0.859601	0.185667	5.801596
0.862757	0.185993	5.824838
0.865913	0.186317	5.848072
0.869069	0.186636	5.871296
0.872224	0.186953	5.894502
0.875378	0.187267	5.917688
0.878532	0.187579	5.940850
0.881685	0.187889	5.963985
0.884837	0.188197	5.987087
0.887989	0.188503	6.010153
0.891141	0.188808	6.033179
0.894292	0.189112	6.056163
0.897442	0.189415	6.079100
0.900591	0.189717	6.101986
0.903740	0.190020	6.124818
0.906888	0.190322	6.147593
0.910036	0.190625	6.170307
0.913183	0.190928	6.192957
0.916330	0.191232	6.215539
0.919475	0.191537	6.238050
0.922621	0.191842	6.260488
0.925765	0.192150	6.282849
0.928909	0.192459	6.305128
0.932052	0.192769	6.327326
0.935195	0.193082	6.349436
0.938336	0.193397	6.371458
0.941478	0.193714	6.393386
0.944618	0.194034	6.415221
0.947758	0.194356	6.436957
0.950897	0.194682	6.458592
0.954036	0.195011	6.480124
0.957173	0.195343	6.501549
0.960310	0.195679	6.522865
0.963447	0.196018	6.544070
0.966582	0.196361	6.565163
0.969717	0.196708	6.586155
0.972852	0.197058	6.607054
0.975985	0.197412	6.627869
0.979118	0.197769	6.648609
0.982250	0.198128	6.669283
0.985381	0.198491	6.689900
0.988512	0.198856	6.710469
0.991642	0.199223	6.730997
0.994771	0.199593	6.751494
0.997899	0.199965	6.771968
1.011663	0.201624	6.862039
1.018509	0.202460	6.906973
1.025352	0.203302	6.952094
1.032194	0.204149	6.997482
1.039034	0.204998	7.043213
1.045873	0.205849	7.089362
1.052711	0.206697	7.135994
1.059547	0.207544	7.183104
1.066382	0.208390	7.230639
1.073215	0.209235	7.278542
1.080048	0.210082	7.326764
1.086879	0.210930	7.375250
1.093710	0.211781	7.423954
1.100539	0.212636	7.472825
1.107368	0.213495	7.521816
1.114196	0.214359	7.570882
1.121023	0.215228	7.619978
1.127849	0.216105	7.669060
1.134675	0.216988	7.718087
1.141500	0.217880	7.767016
1.148325	0.218779	7.815808
1.155150	0.219688	7.864427
1.161974	0.220605	7.912871
1.168798	0.221530	7.961143
1.175622	0.222462	8.009251
1.182446	0.223401	8.057199
1.189270	0.224346	8.104993
1.196093	0.225297	8.152638
1.202917	0.226252	8.200140
1.209742	0.227212	8.247503
1.216566	0.228176	8.294731
1.223391	0.229143	8.341832
1.230216	0.230113	8.388808
1.237041	0.231085	8.435664
1.243867	0.232059	8.482405
1.250694	0.233035	8.529036
1.257522	0.234013	8.575560
1.264350	0.234994	8.621981
1.271179	0.235979	8.668305
1.278009	0.236970	8.714535
1.284840	0.237967	8.760676
1.291671	0.238971	8.806729
1.298504	0.239984	8.852701
1.305338	0.241007	8.898595
1.312174	0.242040	8.944413
1.319010	0.243084	8.990160
1.325849	0.244141	9.035841
1.332688	0.245211	9.081461
1.339529	0.246295	9.127028
1.346372	0.247394	9.172549
1.353216	0.248509	9.218031
1.360062	0.249640	9.263480
1.366910	0.250788	9.308902
1.373759	0.251955	9.354306
1.380611	0.253140	9.399697
1.387465	0.254344	9.445081
1.394320	0.255569	9.490464
1.401178	0.256815	9.535853
1.408038	0.258082	9.581255
1.414900	0.259371	9.626673
1.421765	0.260684	9.672115
1.428632	0.262020	9.717586
1.435502	0.263380	9.763092
1.442374	0.264765	9.808639
1.449249	0.266176	9.854231
