Material: perovskite / CsPbCl3 / Ermolaev-e
Optical constants. G. Ermolaev, A. P. Pushkarev, A. Zhizhchenko, A. A. Kuchmizhak, I. Iorsh, I. Kruglov, A. Mazitov, A. Ishteev, K. Konstantinova, D. Saranin, A. Slavich, D. Stosic, E. S. Zhukova, G. Tselikov, A. D. Carlo, A. Arsenin, K. S. Novoselov, S. V. Makarov, V. S. Volkov. Giant and tunable excitonic optical anisotropy in single-crystal halide perovskites, Nano Lett. 23, 2570â€“2577 (2023) (Numerical data kindly provided by Georgy Ermolaev)
Comments: CsPbCl3 monocrystal. Extraordinary ray (e).
Specs: {"n_is_absolute": true, "wavelength_is_vacuum": true}
wavelength (um)	n	k
0.400	1.91815	0
0.402	1.91727	0
0.404	1.91640	0
0.406	1.91554	0
0.408	1.91470	0
0.410	1.91387	0
0.412	1.91305	0
0.414	1.91224	0
0.416	1.91145	0
0.418	1.91066	0
0.420	1.90989	0
0.422	1.90913	0
0.424	1.90838	0
0.426	1.90764	0
0.428	1.90691	0
0.430	1.90619	0
0.432	1.90548	0
0.434	1.90478	0
0.436	1.90409	0
0.438	1.90341	0
0.440	1.90274	0
0.442	1.90207	0
0.444	1.90142	0
0.446	1.90077	0
0.448	1.90014	0
0.450	1.89951	0
0.452	1.89889	0
0.454	1.89828	0
0.456	1.89768	0
0.458	1.89708	0
0.460	1.89649	0
0.462	1.89591	0
0.464	1.89534	0
0.466	1.89477	0
0.468	1.89422	0
0.470	1.89366	0
0.472	1.89312	0
0.474	1.89258	0
0.476	1.89205	0
0.478	1.89153	0
0.480	1.89101	0
0.482	1.89050	0
0.484	1.89000	0
0.486	1.88950	0
0.488	1.88901	0
0.490	1.88852	0
0.492	1.88804	0
0.494	1.88757	0
0.496	1.88710	0
0.498	1.88664	0
0.500	1.88618	0
0.502	1.88573	0
0.504	1.88528	0
0.506	1.88484	0
0.508	1.88440	0
0.510	1.88397	0
0.512	1.88355	0
0.514	1.88312	0
0.516	1.88271	0
0.518	1.88230	0
0.520	1.88189	0
0.522	1.88149	0
0.524	1.88109	0
0.526	1.88070	0
0.528	1.88031	0
0.530	1.87993	0
0.532	1.87955	0
0.534	1.87917	0
0.536	1.87880	0
0.538	1.87843	0
0.540	1.87807	0
0.542	1.87771	0
0.544	1.87736	0
0.546	1.87701	0
0.548	1.87666	0
0.550	1.87632	0
0.552	1.87597	0
0.554	1.87564	0
0.556	1.87531	0
0.558	1.87498	0
0.560	1.87465	0
0.562	1.87433	0
0.564	1.87401	0
0.566	1.87370	0
0.568	1.87339	0
0.570	1.87308	0
0.572	1.87277	0
0.574	1.87247	0
0.576	1.87217	0
0.578	1.87187	0
0.580	1.87158	0
0.582	1.87129	0
0.584	1.87101	0
0.586	1.87072	0
0.588	1.87044	0
0.590	1.87016	0
0.592	1.86989	0
0.594	1.86961	0
0.596	1.86934	0
0.598	1.86908	0
0.600	1.86881	0
0.602	1.86855	0
0.604	1.86829	0
0.606	1.86803	0
0.608	1.86778	0
0.610	1.86753	0
0.612	1.86728	0
0.614	1.86703	0
0.616	1.86679	0
0.618	1.86655	0
0.620	1.86631	0
0.622	1.86607	0
0.624	1.86583	0
0.626	1.86560	0
0.628	1.86537	0
0.630	1.86514	0
0.632	1.86492	0
0.634	1.86469	0
0.636	1.86447	0
0.638	1.86425	0
0.640	1.86403	0
0.642	1.86382	0
0.644	1.86360	0
0.646	1.86339	0
0.648	1.86318	0
0.650	1.86297	0
0.652	1.86277	0
0.654	1.86256	0
0.656	1.86236	0
0.658	1.86216	0
0.660	1.86196	0
0.662	1.86177	0
0.664	1.86157	0
0.666	1.86138	0
0.668	1.86119	0
0.670	1.86100	0
0.672	1.86081	0
0.674	1.86062	0
0.676	1.86044	0
0.678	1.86025	0
0.680	1.86007	0
0.682	1.85989	0
0.684	1.85971	0
0.686	1.85954	0
0.688	1.85936	0
0.690	1.85919	0
0.692	1.85902	0
0.694	1.85885	0
0.696	1.85868	0
0.698	1.85851	0
0.700	1.85834	0
0.702	1.85818	0
0.704	1.85801	0
0.706	1.85785	0
0.708	1.85769	0
0.710	1.85753	0
0.712	1.85737	0
0.714	1.85722	0
0.716	1.85706	0
0.718	1.85691	0
0.720	1.85675	0
0.722	1.85660	0
0.724	1.85645	0
0.726	1.85630	0
0.728	1.85615	0
0.730	1.85601	0
0.732	1.85586	0
0.734	1.85572	0
0.736	1.85557	0
0.738	1.85543	0
0.740	1.85529	0
0.742	1.85515	0
0.744	1.85501	0
0.746	1.85488	0
0.748	1.85474	0
0.750	1.85460	0
0.752	1.85447	0
0.754	1.85434	0
0.756	1.85421	0
0.758	1.85407	0
0.760	1.85394	0
0.762	1.85382	0
0.764	1.85369	0
0.766	1.85356	0
0.768	1.85343	0
0.770	1.85331	0
0.772	1.85319	0
0.774	1.85306	0
0.776	1.85294	0
0.778	1.85282	0
0.780	1.85270	0
0.782	1.85258	0
0.784	1.85246	0
0.786	1.85234	0
0.788	1.85223	0
0.790	1.85211	0
0.792	1.85200	0
0.794	1.85188	0
0.796	1.85177	0
0.798	1.85166	0
0.800	1.85155	0
