Material: perovskite / CsPbCl3 / Ermolaev-o
Optical constants. G. Ermolaev, A. P. Pushkarev, A. Zhizhchenko, A. A. Kuchmizhak, I. Iorsh, I. Kruglov, A. Mazitov, A. Ishteev, K. Konstantinova, D. Saranin, A. Slavich, D. Stosic, E. S. Zhukova, G. Tselikov, A. D. Carlo, A. Arsenin, K. S. Novoselov, S. V. Makarov, V. S. Volkov. Giant and tunable excitonic optical anisotropy in single-crystal halide perovskites, Nano Lett. 23, 2570â€“2577 (2023) (Numerical data kindly provided by Georgy Ermolaev)
Comments: CsPbCl3 monocrystal. Ordinary ray (o).
Specs: {"n_is_absolute": true, "wavelength_is_vacuum": true}
wavelength (um)	n	k
0.400	1.80586	0.28528
0.402	1.80695	0.32461
0.404	1.81685	0.37810
0.406	1.84735	0.45083
0.408	1.92542	0.54128
0.410	2.09558	0.60908
0.412	2.33657	0.52745
0.414	2.43497	0.28156
0.416	2.35943	0.10036
0.418	2.26029	0.02637
0.420	2.18644	0.00351
0.422	2.13753	0
0.424	2.10602	0
0.426	2.08289	0
0.428	2.06478	0
0.430	2.05005	0
0.432	2.03775	0
0.434	2.02726	0
0.436	2.01818	0
0.438	2.01022	0
0.440	2.00317	0
0.442	1.99686	0
0.444	1.99119	0
0.446	1.98604	0
0.448	1.98134	0
0.450	1.97704	0
0.452	1.97307	0
0.454	1.96941	0
0.456	1.96602	0
0.458	1.96285	0
0.460	1.95990	0
0.462	1.95714	0
0.464	1.95454	0
0.466	1.95210	0
0.468	1.94980	0
0.470	1.94763	0
0.472	1.94557	0
0.474	1.94362	0
0.476	1.94177	0
0.478	1.94001	0
0.480	1.93833	0
0.482	1.93673	0
0.484	1.93521	0
0.486	1.93375	0
0.488	1.93235	0
0.490	1.93101	0
0.492	1.92973	0
0.494	1.92850	0
0.496	1.92732	0
0.498	1.92618	0
0.500	1.92508	0
0.502	1.92403	0
0.504	1.92301	0
0.506	1.92203	0
0.508	1.92109	0
0.510	1.92017	0
0.512	1.91929	0
0.514	1.91843	0
0.516	1.91761	0
0.518	1.91681	0
0.520	1.91603	0
0.522	1.91528	0
0.524	1.91455	0
0.526	1.91384	0
0.528	1.91315	0
0.530	1.91249	0
0.532	1.91184	0
0.534	1.91121	0
0.536	1.91060	0
0.538	1.91000	0
0.540	1.90942	0
0.542	1.90886	0
0.544	1.90831	0
0.546	1.90777	0
0.548	1.90725	0
0.550	1.90674	0
0.552	1.90624	0
0.554	1.90576	0
0.556	1.90528	0
0.558	1.90482	0
0.560	1.90437	0
0.562	1.90393	0
0.564	1.90350	0
0.566	1.90308	0
0.568	1.90267	0
0.570	1.90227	0
0.572	1.90188	0
0.574	1.90149	0
0.576	1.90112	0
0.578	1.90075	0
0.580	1.90039	0
0.582	1.90004	0
0.584	1.89969	0
0.586	1.89935	0
0.588	1.89902	0
0.590	1.89870	0
0.592	1.89838	0
0.594	1.89806	0
0.596	1.89776	0
0.598	1.89746	0
0.600	1.89716	0
0.602	1.89688	0
0.604	1.89659	0
0.606	1.89631	0
0.608	1.89604	0
0.610	1.89577	0
0.612	1.89551	0
0.614	1.89525	0
0.616	1.89500	0
0.618	1.89475	0
0.620	1.89450	0
0.622	1.89426	0
0.624	1.89402	0
0.626	1.89379	0
0.628	1.89356	0
0.630	1.89334	0
0.632	1.89312	0
0.634	1.89290	0
0.636	1.89269	0
0.638	1.89247	0
0.640	1.89227	0
0.642	1.89206	0
0.644	1.89186	0
0.646	1.89167	0
0.648	1.89147	0
0.650	1.89128	0
0.652	1.89109	0
0.654	1.89091	0
0.656	1.89073	0
0.658	1.89054	0
0.660	1.89037	0
0.662	1.89019	0
0.664	1.89002	0
0.666	1.88985	0
0.668	1.88969	0
0.670	1.88952	0
0.672	1.88936	0
0.674	1.88920	0
0.676	1.88904	0
0.678	1.88889	0
0.680	1.88873	0
0.682	1.88858	0
0.684	1.88844	0
0.686	1.88829	0
0.688	1.88814	0
0.690	1.88800	0
0.692	1.88786	0
0.694	1.88772	0
0.696	1.88758	0
0.698	1.88745	0
0.700	1.88732	0
0.702	1.88718	0
0.704	1.88705	0
0.706	1.88693	0
0.708	1.88680	0
0.710	1.88667	0
0.712	1.88655	0
0.714	1.88643	0
0.716	1.88631	0
0.718	1.88619	0
0.720	1.88607	0
0.722	1.88596	0
0.724	1.88584	0
0.726	1.88573	0
0.728	1.88562	0
0.730	1.88551	0
0.732	1.88540	0
0.734	1.88529	0
0.736	1.88518	0
0.738	1.88508	0
0.740	1.88498	0
0.742	1.88487	0
0.744	1.88477	0
0.746	1.88467	0
0.748	1.88457	0
0.750	1.88447	0
0.752	1.88438	0
0.754	1.88428	0
0.756	1.88419	0
0.758	1.88409	0
0.760	1.88400	0
0.762	1.88391	0
0.764	1.88382	0
0.766	1.88373	0
0.768	1.88364	0
0.770	1.88356	0
0.772	1.88347	0
0.774	1.88338	0
0.776	1.88330	0
0.778	1.88322	0
0.780	1.88313	0
0.782	1.88305	0
0.784	1.88297	0
0.786	1.88289	0
0.788	1.88281	0
0.790	1.88273	0
0.792	1.88265	0
0.794	1.88258	0
0.796	1.88250	0
0.798	1.88243	0
0.800	1.88235	0
