Material: main / SiO2 / Jansonas
Optical constants. G. Jansonas, R. Budriūnas, M. Vengris, A. Varanavičius. Interferometric measurements of nonlinear refractive index in the infrared spectral range, Opt. Express 30, 30507–30524 (2022)
Comments: Ultraviolet grade fused silica - UVFS (SiO2). 230 fs at 1.03 μm. Fourier Interferometry.
Specs: {"n2_method": "FI", "pulse_duration": "230e-15"}
wavelength (um)	n	2
1.03	0.253e-19
