Material: main / SiO2 / Milam
Optical constants. D. Milam. Review and assessment of measured values of the nonlinear refractive-index coefficient of fused silica, Appl. Opt. 37, 546 (1998)Compilation of data from several sources.
Comments: Fused silica.
wavelength (um)	n	2
0.351	3.60e-20
0.527	3.00e-20
1.053	2.74e-20
