Material: main / KBr / DeSalvo
Optical constants. R. DeSalvo, A. A. Said, D. J. Hagan, E. W. Van Stryland, M. Sheik-Bahae. Infrared to ultraviolet measurements of two-photon absorption and n2 in wide bandgap solids, IEEE J. Quantum Electron. 32, 1324 (1996)
Comments: 22 ps @ 532 nm, 30 ps @ 1064 nm. Z-scan.
Specs: {"n2_method": "Z-scan", "pulse_duration": "22e-12 30e-12"}
wavelength (um)	n	2
0.532	1.26e-19
1.064	7.87e-20
