Material: main / BN / Grudinin-o
Optical constants. D. V. Grudinin, G. A. Ermolaev, D. G. Baranov, A. N. Toksumakov, K. V. Voronin, A. S. Slavich, A. A. Vyshnevyy, A. B. Mazitov, I. A. Kruglov, D. A. Ghazaryan, A. V. Arsenin, K. S. Novoselov, V. S. Volkov. Hexagonal boron nitride nanophotonics: a record-breaking material for the ultraviolet and visible spectral ranges, Mater. Horiz., XXX, XXX (2023) (Numerical data kindly provided by Georgy Ermolaev)
Comments: Hexagonal boron nitride (hBN). Experimental data. Ordinary ray (o).
Specs: {"n_is_absolute": true, "wavelength_is_vacuum": true}
wavelength (um)	n
0.250	2.73586
0.254	2.70338
0.258	2.67335
0.262	2.64555
0.266	2.61977
0.270	2.59585
0.274	2.57363
0.278	2.55296
0.282	2.53372
0.286	2.51578
0.290	2.49905
0.294	2.48342
0.298	2.46881
0.302	2.45514
0.306	2.44235
0.310	2.43035
0.314	2.41910
0.318	2.40853
0.322	2.39860
0.326	2.38927
0.330	2.38048
0.334	2.37221
0.338	2.36441
0.342	2.35706
0.346	2.35012
0.350	2.34356
0.354	2.33736
0.358	2.33151
0.362	2.32596
0.366	2.32071
0.370	2.31574
0.374	2.31102
0.378	2.30655
0.382	2.30230
0.386	2.29827
0.390	2.29444
0.394	2.29079
0.398	2.28733
0.402	2.28403
0.406	2.28089
0.410	2.27790
0.414	2.27505
0.418	2.27233
0.422	2.26973
0.426	2.26726
0.430	2.26489
0.434	2.26264
0.438	2.26048
0.442	2.25841
0.446	2.25644
0.450	2.25455
0.454	2.25274
0.458	2.25101
0.462	2.24935
0.466	2.24776
0.470	2.24623
0.474	2.24477
0.478	2.24337
0.482	2.24202
0.486	2.24073
0.490	2.23948
0.494	2.23829
0.498	2.23714
0.502	2.23604
0.506	2.23498
0.510	2.23396
0.514	2.23297
0.518	2.23203
0.522	2.23111
0.526	2.23024
0.530	2.22939
0.534	2.22858
0.538	2.22779
0.542	2.22703
0.546	2.22630
0.550	2.22559
0.554	2.22491
0.558	2.22425
0.562	2.22362
0.566	2.22300
0.570	2.22241
0.574	2.22184
0.578	2.22128
0.582	2.22075
0.586	2.22023
0.590	2.21973
0.594	2.21924
0.598	2.21877
0.602	2.21832
0.606	2.21788
0.610	2.21745
0.614	2.21704
0.618	2.21664
0.622	2.21625
0.626	2.21587
0.630	2.21551
0.634	2.21515
0.638	2.21481
0.642	2.21448
0.646	2.21415
0.650	2.21384
0.654	2.21354
0.658	2.21324
0.662	2.21295
0.666	2.21267
0.670	2.21240
0.674	2.21214
0.678	2.21188
0.682	2.21163
0.686	2.21139
0.690	2.21116
0.694	2.21093
0.698	2.21071
0.702	2.21049
0.706	2.21028
0.710	2.21007
0.714	2.20987
0.718	2.20968
0.722	2.20949
0.726	2.20931
0.730	2.20913
0.734	2.20895
0.738	2.20878
0.742	2.20861
0.746	2.20845
0.750	2.20829
0.754	2.20814
0.758	2.20799
0.762	2.20784
0.766	2.20770
0.770	2.20756
0.774	2.20743
0.778	2.20729
0.782	2.20716
0.786	2.20704
0.790	2.20691
0.794	2.20679
0.798	2.20668
0.802	2.20656
0.806	2.20645
0.810	2.20634
0.814	2.20623
0.818	2.20613
0.822	2.20603
0.826	2.20593
0.830	2.20583
0.834	2.20573
0.838	2.20564
0.842	2.20555
0.846	2.20546
0.850	2.20537
0.854	2.20529
0.858	2.20520
0.862	2.20512
0.866	2.20504
0.870	2.20497
0.874	2.20489
0.878	2.20481
0.882	2.20474
0.886	2.20467
0.890	2.20460
0.894	2.20453
0.898	2.20446
0.902	2.20440
0.906	2.20433
0.910	2.20427
0.914	2.20421
0.918	2.20415
0.922	2.20409
0.926	2.20403
0.930	2.20397
0.934	2.20391
0.938	2.20386
0.942	2.20381
0.946	2.20375
0.950	2.20370
0.954	2.20365
0.958	2.20360
0.962	2.20355
0.966	2.20350
0.970	2.20346
0.974	2.20341
0.978	2.20336
0.982	2.20332
0.986	2.20328
0.990	2.20323
0.994	2.20319
0.998	2.20315
1.002	2.20311
1.006	2.20307
1.010	2.20303
1.014	2.20299
1.018	2.20296
1.022	2.20292
1.026	2.20288
1.030	2.20285
1.034	2.20281
1.038	2.20278
1.042	2.20274
1.046	2.20271
1.050	2.20268
1.054	2.20265
1.058	2.20261
1.062	2.20258
1.066	2.20255
1.070	2.20252
1.074	2.20249
1.078	2.20246
1.082	2.20244
1.086	2.20241
1.090	2.20238
1.094	2.20235
1.098	2.20233
1.102	2.20230
1.106	2.20227
1.110	2.20225
1.114	2.20222
1.118	2.20220
1.122	2.20218
1.126	2.20215
1.130	2.20213
1.134	2.20211
1.138	2.20208
1.142	2.20206
1.146	2.20204
1.150	2.20202
1.154	2.20200
1.158	2.20197
1.162	2.20195
1.166	2.20193
1.170	2.20191
1.174	2.20189
1.178	2.20187
1.182	2.20186
1.186	2.20184
1.190	2.20182
1.194	2.20180
1.198	2.20178
1.202	2.20176
1.206	2.20175
1.210	2.20173
1.214	2.20171
1.218	2.20170
1.222	2.20168
1.226	2.20166
1.230	2.20165
1.234	2.20163
1.238	2.20162
1.242	2.20160
1.246	2.20159
1.250	2.20157
1.254	2.20156
1.258	2.20154
1.262	2.20153
1.266	2.20151
1.270	2.20150
1.274	2.20149
1.278	2.20147
1.282	2.20146
1.286	2.20145
1.290	2.20143
1.294	2.20142
1.298	2.20141
1.302	2.20140
1.306	2.20138
1.310	2.20137
1.314	2.20136
1.318	2.20135
1.322	2.20134
1.326	2.20133
1.330	2.20131
1.334	2.20130
1.338	2.20129
1.342	2.20128
1.346	2.20127
1.350	2.20126
1.354	2.20125
1.358	2.20124
1.362	2.20123
1.366	2.20122
1.370	2.20121
1.374	2.20120
1.378	2.20119
1.382	2.20118
1.386	2.20117
1.390	2.20116
1.394	2.20115
1.398	2.20114
1.402	2.20113
1.406	2.20113
1.410	2.20112
1.414	2.20111
1.418	2.20110
1.422	2.20109
1.426	2.20108
1.430	2.20107
1.434	2.20107
1.438	2.20106
1.442	2.20105
1.446	2.20104
1.450	2.20103
1.454	2.20103
1.458	2.20102
1.462	2.20101
1.466	2.20100
1.470	2.20100
1.474	2.20099
1.478	2.20098
1.482	2.20098
1.486	2.20097
1.490	2.20096
1.494	2.20096
1.498	2.20095
1.502	2.20094
1.506	2.20094
1.510	2.20093
1.514	2.20092
1.518	2.20092
1.522	2.20091
1.526	2.20090
1.530	2.20090
1.534	2.20089
1.538	2.20089
1.542	2.20088
1.546	2.20087
1.550	2.20087
1.554	2.20086
1.558	2.20086
1.562	2.20085
1.566	2.20085
1.570	2.20084
1.574	2.20083
1.578	2.20083
1.582	2.20082
1.586	2.20082
1.590	2.20081
1.594	2.20081
1.598	2.20080
1.602	2.20080
1.606	2.20079
1.610	2.20079
1.614	2.20078
1.618	2.20078
1.622	2.20077
1.626	2.20077
1.630	2.20076
1.634	2.20076
1.638	2.20075
1.642	2.20075
1.646	2.20075
1.650	2.20074
1.654	2.20074
1.658	2.20073
1.662	2.20073
1.666	2.20072
1.670	2.20072
1.674	2.20072
1.678	2.20071
1.682	2.20071
1.686	2.20070
1.690	2.20070
1.694	2.20070
1.698	2.20069
