Material: main / BN / Grudinin-e
Optical constants. D. V. Grudinin, G. A. Ermolaev, D. G. Baranov, A. N. Toksumakov, K. V. Voronin, A. S. Slavich, A. A. Vyshnevyy, A. B. Mazitov, I. A. Kruglov, D. A. Ghazaryan, A. V. Arsenin, K. S. Novoselov, V. S. Volkov. Hexagonal boron nitride nanophotonics: a record-breaking material for the ultraviolet and visible spectral ranges, Mater. Horiz., XXX, XXX (2023) (Numerical data kindly provided by Georgy Ermolaev)
Comments: Hexagonal boron nitride (hBN). Experimental data. Extraordinary ray (e).
Specs: {"n_is_absolute": true, "wavelength_is_vacuum": true}
wavelength (um)	n
0.250	1.82808
0.254	1.81744
0.258	1.80745
0.262	1.79806
0.266	1.78922
0.270	1.78089
0.274	1.77304
0.278	1.76562
0.282	1.75861
0.286	1.75198
0.290	1.74570
0.294	1.73975
0.298	1.73410
0.302	1.72873
0.306	1.72363
0.310	1.71878
0.314	1.71417
0.318	1.70977
0.322	1.70557
0.326	1.70157
0.330	1.69775
0.334	1.69410
0.338	1.69060
0.342	1.68726
0.346	1.68406
0.350	1.68100
0.354	1.67806
0.358	1.67524
0.362	1.67254
0.366	1.66994
0.370	1.66745
0.374	1.66505
0.378	1.66274
0.382	1.66052
0.386	1.65838
0.390	1.65632
0.394	1.65434
0.398	1.65242
0.402	1.65058
0.406	1.64879
0.410	1.64707
0.414	1.64541
0.418	1.64381
0.422	1.64226
0.426	1.64076
0.430	1.63930
0.434	1.63790
0.438	1.63654
0.442	1.63522
0.446	1.63395
0.450	1.63271
0.454	1.63151
0.458	1.63035
0.462	1.62922
0.466	1.62813
0.470	1.62706
0.474	1.62603
0.478	1.62503
0.482	1.62406
0.486	1.62311
0.490	1.62219
0.494	1.62130
0.498	1.62043
0.502	1.61958
0.506	1.61876
0.510	1.61796
0.514	1.61718
0.518	1.61642
0.522	1.61567
0.526	1.61495
0.530	1.61425
0.534	1.61356
0.538	1.61290
0.542	1.61224
0.546	1.61161
0.550	1.61099
0.554	1.61038
0.558	1.60979
0.562	1.60921
0.566	1.60865
0.570	1.60810
0.574	1.60756
0.578	1.60704
0.582	1.60652
0.586	1.60602
0.590	1.60553
0.594	1.60505
0.598	1.60458
0.602	1.60412
0.606	1.60368
0.610	1.60324
0.614	1.60281
0.618	1.60239
0.622	1.60198
0.626	1.60157
0.630	1.60118
0.634	1.60079
0.638	1.60041
0.642	1.60004
0.646	1.59968
0.650	1.59932
0.654	1.59897
0.658	1.59863
0.662	1.59830
0.666	1.59797
0.670	1.59764
0.674	1.59733
0.678	1.59702
0.682	1.59671
0.686	1.59641
0.690	1.59612
0.694	1.59583
0.698	1.59555
0.702	1.59527
0.706	1.59500
0.710	1.59474
0.714	1.59447
0.718	1.59422
0.722	1.59396
0.726	1.59371
0.730	1.59347
0.734	1.59323
0.738	1.59299
0.742	1.59276
0.746	1.59254
0.750	1.59231
0.754	1.59209
0.758	1.59188
0.762	1.59166
0.766	1.59145
0.770	1.59125
0.774	1.59105
0.778	1.59085
0.782	1.59065
0.786	1.59046
0.790	1.59027
0.794	1.59008
0.798	1.58990
0.802	1.58972
0.806	1.58954
0.810	1.58937
0.814	1.58920
0.818	1.58903
0.822	1.58886
0.826	1.58869
0.830	1.58853
0.834	1.58837
0.838	1.58822
0.842	1.58806
0.846	1.58791
0.850	1.58776
0.854	1.58761
0.858	1.58747
0.862	1.58732
0.866	1.58718
0.870	1.58704
0.874	1.58690
0.878	1.58677
0.882	1.58664
0.886	1.58650
0.890	1.58637
0.894	1.58625
0.898	1.58612
0.902	1.58600
0.906	1.58587
0.910	1.58575
0.914	1.58563
0.918	1.58552
0.922	1.58540
0.926	1.58529
0.930	1.58517
0.934	1.58506
0.938	1.58495
0.942	1.58484
0.946	1.58474
0.950	1.58463
0.954	1.58453
0.958	1.58442
0.962	1.58432
0.966	1.58422
0.970	1.58412
0.974	1.58403
0.978	1.58393
0.982	1.58383
0.986	1.58374
0.990	1.58365
0.994	1.58356
0.998	1.58347
1.002	1.58338
1.006	1.58329
1.010	1.58320
1.014	1.58312
1.018	1.58303
1.022	1.58295
1.026	1.58286
1.030	1.58278
1.034	1.58270
1.038	1.58262
1.042	1.58254
1.046	1.58246
1.050	1.58239
1.054	1.58231
1.058	1.58223
1.062	1.58216
1.066	1.58209
1.070	1.58201
1.074	1.58194
1.078	1.58187
1.082	1.58180
1.086	1.58173
1.090	1.58166
1.094	1.58159
1.098	1.58153
1.102	1.58146
1.106	1.58140
1.110	1.58133
1.114	1.58127
1.118	1.58120
1.122	1.58114
1.126	1.58108
1.130	1.58102
1.134	1.58096
1.138	1.58090
1.142	1.58084
1.146	1.58078
1.150	1.58072
1.154	1.58066
1.158	1.58060
1.162	1.58055
1.166	1.58049
1.170	1.58044
1.174	1.58038
1.178	1.58033
1.182	1.58028
1.186	1.58022
1.190	1.58017
1.194	1.58012
1.198	1.58007
1.202	1.58002
1.206	1.57997
1.210	1.57992
1.214	1.57987
1.218	1.57982
1.222	1.57977
1.226	1.57972
1.230	1.57968
1.234	1.57963
1.238	1.57958
1.242	1.57954
1.246	1.57949
1.250	1.57945
1.254	1.57940
1.258	1.57936
1.262	1.57931
1.266	1.57927
1.270	1.57923
1.274	1.57919
1.278	1.57914
1.282	1.57910
1.286	1.57906
1.290	1.57902
1.294	1.57898
1.298	1.57894
1.302	1.57890
1.306	1.57886
1.310	1.57882
1.314	1.57878
1.318	1.57875
1.322	1.57871
1.326	1.57867
1.330	1.57863
1.334	1.57860
1.338	1.57856
1.342	1.57852
1.346	1.57849
1.350	1.57845
1.354	1.57842
1.358	1.57838
1.362	1.57835
1.366	1.57831
1.370	1.57828
1.374	1.57825
1.378	1.57821
1.382	1.57818
1.386	1.57815
1.390	1.57812
1.394	1.57808
1.398	1.57805
1.402	1.57802
1.406	1.57799
1.410	1.57796
1.414	1.57793
1.418	1.57790
1.422	1.57787
1.426	1.57784
1.430	1.57781
1.434	1.57778
1.438	1.57775
1.442	1.57772
1.446	1.57769
1.450	1.57766
1.454	1.57763
1.458	1.57760
1.462	1.57758
1.466	1.57755
1.470	1.57752
1.474	1.57750
1.478	1.57747
1.482	1.57744
1.486	1.57742
1.490	1.57739
1.494	1.57736
1.498	1.57734
1.502	1.57731
1.506	1.57729
1.510	1.57726
1.514	1.57724
1.518	1.57721
1.522	1.57719
1.526	1.57716
1.530	1.57714
1.534	1.57711
1.538	1.57709
1.542	1.57707
1.546	1.57704
1.550	1.57702
1.554	1.57700
1.558	1.57697
1.562	1.57695
1.566	1.57693
1.570	1.57691
1.574	1.57689
1.578	1.57686
1.582	1.57684
1.586	1.57682
1.590	1.57680
1.594	1.57678
1.598	1.57676
1.602	1.57673
1.606	1.57671
1.610	1.57669
1.614	1.57667
1.618	1.57665
1.622	1.57663
1.626	1.57661
1.630	1.57659
1.634	1.57657
1.638	1.57655
1.642	1.57653
1.646	1.57651
1.650	1.57649
1.654	1.57648
1.658	1.57646
1.662	1.57644
1.666	1.57642
1.670	1.57640
1.674	1.57638
1.678	1.57636
1.682	1.57635
1.686	1.57633
1.690	1.57631
1.694	1.57629
1.698	1.57628
