Material: main / AgGaSe2 / Pigeon
Optical constants. J. J. Pigeon, D. A. Matteo, S. Ya. Tochitsky, I. Ben-Zvi, C. Joshi. Measurements of the nonlinear refractive index of AgGaSe2, GaSe, and ZnSe at 10 Âµm, J. Opt. Soc. Am. B 37, 2076 (2020)
Comments: 300 ns. Four-wave mixing. Relative measurement (to GaAs); probably wrong reference value.
Specs: {"n2_method": "FWM", "pulse_duration": "300e-9"}
wavelength (um)	n	2
10.6	2.0e-19
