Material: commercial plastics / Kapton / Cunningham
Optical constants. P. D. Cunningham, N. N. Valdes, F. A. Vallejo, L. M. Hayden, B. Polishak, X.-H. Zhou, J. Luo, A. K.-Y. Jen, J. C. Williams, R. J. Twieg. Broadband terahertz characterization of the refractive index and absorption of some important polymeric and organic electro-optic materials, J. Appl. Phys. 109, 043505-043505-5 (2011)
Comments: Kapton sheet from Dupont
wavelength (um)	n
30	1.82009
30.2	1.82009
30.4	1.8201
30.6	1.81959
30.8	1.82139
31	1.82401
31.2	1.81813
31.4	1.81324
31.6	1.81003
31.8	1.81005
32	1.81059
32.2	1.81102
32.4	1.81137
32.6	1.81215
32.8	1.81126
33	1.80852
33.2	1.8061
33.4	1.80403
33.6	1.80302
33.8	1.80294
34	1.80405
34.2	1.80543
34.4	1.80655
34.6	1.80462
34.8	1.80317
35	1.80144
35.2	1.79815
35.4	1.79662
35.6	1.79616
35.8	1.79691
36	1.79274
36.2	1.78777
36.4	1.78715
36.6	1.78623
36.8	1.78178
37	1.78319
37.2	1.78884
37.4	1.78859
37.6	1.79142
37.8	1.80087
38	1.80596
38.2	1.80834
38.4	1.8156
38.6	1.82654
38.8	1.83488
39	1.84296
39.2	1.84565
39.4	1.84907
39.6	1.85831
39.8	1.86103
40	1.86048
40.2	1.85928
40.4	1.85811
40.6	1.85694
40.8	1.85442
41	1.85123
41.2	1.84896
41.4	1.84593
41.6	1.84242
41.8	1.84088
42	1.83926
42.2	1.8371
42.4	1.83482
42.6	1.83245
42.8	1.8311
43	1.82998
43.2	1.82857
43.4	1.82594
43.6	1.82406
43.8	1.82241
44	1.82133
44.2	1.82091
44.4	1.82049
44.6	1.81974
44.8	1.81859
45	1.81806
45.2	1.81926
45.4	1.82046
45.6	1.8198
45.8	1.8187
46	1.81811
46.2	1.81798
46.4	1.81785
46.6	1.81776
46.8	1.81776
47	1.81776
47.2	1.81776
47.4	1.81776
47.6	1.81776
47.8	1.81772
48	1.81745
48.2	1.81717
48.4	1.81697
48.6	1.81729
48.8	1.81762
49	1.8186
49.2	1.82019
49.4	1.82177
49.6	1.82335
49.8	1.82366
50	1.82366
50.2	1.82366
50.4	1.82367
50.6	1.82367
50.8	1.82367
51	1.82367
51.2	1.82395
51.4	1.82444
51.6	1.82492
51.8	1.82538
52	1.82558
52.2	1.82578
52.4	1.82598
52.6	1.82618
52.8	1.82479
53	1.82327
53.2	1.8217
53.4	1.81991
53.6	1.81812
53.8	1.81638
54	1.81474
54.2	1.8131
54.4	1.81139
54.6	1.80966
54.8	1.80869
55	1.80784
55.2	1.807
55.4	1.80616
55.6	1.80425
55.8	1.80219
56	1.80058
56.2	1.79905
56.4	1.79765
56.6	1.79765
56.8	1.79765
57	1.79765
57.2	1.79765
57.4	1.79765
57.6	1.79765
57.8	1.79765
58	1.80021
58.2	1.80299
58.4	1.80614
58.6	1.80985
58.8	1.81449
59	1.81809
59.2	1.82165
59.4	1.82508
59.6	1.82834
59.8	1.83062
60	1.83276
60.2	1.83571
60.4	1.83941
60.6	1.84129
60.8	1.84303
61	1.84441
61.2	1.84543
61.4	1.84645
61.6	1.84747
61.8	1.84868
62	1.85017
62.2	1.85166
62.4	1.85316
62.6	1.85479
62.8	1.85642
63	1.85768
63.2	1.85846
63.4	1.85924
63.6	1.86003
63.8	1.86081
64	1.86199
64.2	1.86346
64.4	1.86492
64.6	1.866
64.8	1.86658
65	1.86716
65.2	1.86775
65.4	1.86833
65.6	1.86891
65.8	1.86949
66	1.87095
66.2	1.8725
66.4	1.87423
66.6	1.87597
66.8	1.8777
67	1.87874
67.2	1.87936
67.4	1.87997
67.6	1.88059
67.8	1.8812
68	1.88187
68.2	1.8829
68.4	1.88392
68.6	1.88495
68.8	1.88596
69	1.8866
69.2	1.88724
69.4	1.88788
69.6	1.88852
69.8	1.88916
70	1.88978
70.2	1.8904
70.4	1.89102
70.6	1.89164
70.8	1.89226
71	1.89293
71.2	1.89368
71.4	1.89443
71.6	1.89518
71.8	1.89593
72	1.89668
72.2	1.89749
72.4	1.89831
72.6	1.89913
72.8	1.89995
73	1.90055
73.2	1.89984
73.4	1.89913
73.6	1.89842
73.8	1.89771
74	1.89719
74.2	1.89693
74.4	1.89667
74.6	1.89641
74.8	1.89615
75	1.89604
75.2	1.89604
75.4	1.89604
75.6	1.89604
75.8	1.89604
76	1.89604
76.2	1.89604
76.4	1.89602
76.6	1.8955
76.8	1.89498
77	1.89447
77.2	1.89395
77.4	1.89343
77.6	1.89292
77.8	1.89275
78	1.89288
78.2	1.893
78.4	1.89313
78.6	1.89325
78.8	1.89338
79	1.8935
79.2	1.89336
79.4	1.89316
79.6	1.89296
79.8	1.89276
80	1.89256
80.2	1.89236
80.4	1.89216
80.6	1.89196
80.8	1.89177
81	1.89158
81.2	1.89138
81.4	1.89119
81.6	1.891
81.8	1.89081
82	1.89062
82.2	1.89043
82.4	1.89023
82.6	1.89011
82.8	1.89002
83	1.88993
83.2	1.88984
83.4	1.88974
83.6	1.88965
83.8	1.88956
84	1.88947
84.2	1.88938
84.4	1.88895
84.6	1.88824
84.8	1.88753
85	1.88681
85.2	1.8861
85.4	1.88612
85.6	1.88629
85.8	1.88646
86	1.88664
86.2	1.88681
86.4	1.88698
86.6	1.88715
86.8	1.88733
87	1.8875
87.2	1.88764
87.4	1.88714
87.6	1.88664
87.8	1.88615
88	1.88565
88.2	1.88516
88.4	1.88466
88.6	1.88417
88.8	1.884
89	1.88427
89.2	1.88453
89.4	1.8848
89.6	1.88506
89.8	1.88533
90	1.8856
90.2	1.88586
90.4	1.88606
90.6	1.8862
90.8	1.88635
91	1.88649
91.2	1.88663
91.4	1.88677
91.6	1.88691
91.8	1.88705
92	1.88719
92.2	1.88734
92.4	1.88748
92.6	1.88762
92.8	1.88787
93	1.88819
93.2	1.8885
93.4	1.88882
93.6	1.88914
93.8	1.88946
94	1.88978
94.2	1.89009
94.4	1.89041
94.6	1.89073
94.8	1.89103
95	1.8909
95.2	1.89076
95.4	1.89062
95.6	1.89048
95.8	1.89034
96	1.8902
96.2	1.89007
96.4	1.88993
96.6	1.88979
96.8	1.88965
97	1.88951
97.2	1.88937
97.4	1.88926
97.6	1.88915
97.8	1.88903
98	1.88892
98.2	1.88881
98.4	1.8887
98.6	1.88859
98.8	1.88847
99	1.88836
99.2	1.88825
99.4	1.88814
99.6	1.88803
99.8	1.88791
100	1.8878
120	1.87939
140	1.87704
160	1.87696
180	1.8756
200	1.8736
220	1.87339
240	1.87254
260	1.87346
280	1.8755
300	1.87906
320	1.88192
340	1.88345
360	1.88425
380	1.88119
400	1.87318
420	1.86925
440	1.86848
460	1.86848
480	1.87085
wavelength (um)	k
30	0.011629
30.2	0.0115854
30.4	0.00790387
30.6	0.00525823
30.8	0.00542354
31	0.000887999
31.2	0.0039436
31.4	0.00385095
31.6	0.00821643
31.8	0.00675322
32	0.00313981
32.2	0.00344523
32.4	0.00443141
32.6	0.00583274
32.8	0.00630471
33	0.0063528
33.2	0.00817995
33.4	0.00799759
33.6	0.00798721
33.8	0.00923375
34	0.0102708
34.2	0.0111933
34.4	0.0127511
34.6	0.0138057
34.8	0.0149085
35	0.0161938
35.2	0.0174976
35.4	0.0187683
35.6	0.0193395
35.8	0.0190133
36	0.0187291
36.2	0.0198872
36.4	0.0265173
36.6	0.0334587
36.8	0.0366831
37	0.0435697
37.2	0.052243
37.4	0.0607196
37.6	0.0632507
37.8	0.0649886
38	0.072259
38.2	0.0751984
38.4	0.0757729
38.6	0.0755191
38.8	0.0744788
39	0.0733185
39.2	0.0665908
39.4	0.0600667
39.6	0.0532251
39.8	0.0471109
40	0.0415768
40.2	0.0352706
40.4	0.0295753
40.6	0.0265635
40.8	0.0251957
41	0.0219044
41.2	0.0167941
41.4	0.0154993
41.6	0.0157418
41.8	0.0151271
42	0.0138268
42.2	0.0129001
42.4	0.0136135
42.6	0.0141828
42.8	0.0138969
43	0.013611
43.2	0.0142285
43.4	0.0151794
43.6	0.0165968
43.8	0.0181723
44	0.0193
44.2	0.0198914
44.4	0.020698
44.6	0.0218991
44.8	0.0237311
45	0.0245931
45.2	0.0244568
45.4	0.0243787
45.6	0.0244284
45.8	0.0244781
46	0.0246448
46.2	0.0248979
46.4	0.0251511
46.6	0.0255645
46.8	0.0261296
47	0.0266947
47.2	0.0272715
47.4	0.0278682
47.6	0.0284649
47.8	0.0293956
48	0.0304776
48.2	0.031712
48.4	0.0330095
48.6	0.034457
48.8	0.0364766
49	0.0388246
49.2	0.040704
49.4	0.0397433
49.6	0.0392053
49.8	0.0386672
50	0.0384222
50.2	0.0382032
50.4	0.0379842
50.6	0.0377235
50.8	0.0374588
51	0.037194
51.2	0.0368101
51.4	0.0363148
51.6	0.0358194
51.8	0.0352547
52	0.0346558
52.2	0.0340327
52.4	0.0331452
52.6	0.0322576
52.8	0.0313611
53	0.0304621
53.2	0.0301378
53.4	0.0305801
53.6	0.0310225
53.8	0.0315916
54	0.032214
54.2	0.0328365
54.4	0.033585
54.6	0.0347806
54.8	0.0359762
55	0.0373019
55.2	0.0386754
55.4	0.0397669
55.6	0.040639
55.8	0.0415111
56	0.0430494
56.2	0.0452367
56.4	0.0487585
56.6	0.0520851
56.8	0.0553368
57	0.0583496
57.2	0.0607164
57.4	0.0631052
57.6	0.0659213
57.8	0.0706183
58	0.0750979
58.2	0.0807836
58.4	0.0847556
58.6	0.0871908
58.8	0.0884135
59	0.0896362
59.2	0.0905155
59.4	0.0905236
59.6	0.0905317
59.8	0.0905398
60	0.0905479
60.2	0.0905008
60.4	0.090447
60.6	0.0903932
60.8	0.0903393
61	0.0897952
61.2	0.0887853
61.4	0.0877755
61.6	0.0864577
61.8	0.0850705
62	0.0852063
62.2	0.0853597
62.4	0.085513
62.6	0.0856664
62.8	0.0851917
63	0.0845785
63.2	0.0839654
63.4	0.083024
63.6	0.0817397
63.8	0.0806891
64	0.0798301
64.2	0.0790332
64.4	0.0788289
64.6	0.0786246
64.8	0.0784203
65	0.078216
65.2	0.0781614
65.4	0.0782105
65.6	0.0782595
65.8	0.0783086
66	0.0777541
66.2	0.0768836
66.4	0.0760132
66.6	0.075029
66.8	0.073806
67	0.072764
67.2	0.0725501
67.4	0.0723361
67.6	0.0721222
67.8	0.0719083
68	0.0712543
68.2	0.0705072
68.4	0.0697602
68.6	0.0688708
68.8	0.0678261
69	0.066917
69.2	0.066527
69.4	0.0661371
69.6	0.0657471
69.8	0.0653572
70	0.0649469
70.2	0.0645223
70.4	0.0640976
70.6	0.063673
70.8	0.0632483
71	0.0625465
71.2	0.0617907
71.4	0.0610349
71.6	0.0601572
71.8	0.058744
72	0.0573308
72.2	0.0558054
72.4	0.0542325
72.6	0.0526451
72.8	0.0509929
73	0.0496263
73.2	0.0490327
73.4	0.0484391
73.6	0.047838
73.8	0.0470928
74	0.0463475
74.2	0.0456022
74.4	0.0448199
74.6	0.0437285
74.8	0.0426371
75	0.0415098
75.2	0.0403344
75.4	0.039159
75.6	0.0385717
75.8	0.0382267
76	0.0378816
76.2	0.0375366
76.4	0.0371916
76.6	0.0368306
76.8	0.0363912
77	0.0359517
77.2	0.0355123
77.4	0.0350728
77.6	0.0346334
77.8	0.0340945
78	0.0334398
78.2	0.0327851
78.4	0.0321305
78.6	0.0315045
78.8	0.0312914
79	0.0310783
79.2	0.0308652
79.4	0.0306521
79.6	0.030439
79.8	0.0302259
80	0.0300184
80.2	0.0298244
80.4	0.0296304
80.6	0.0294364
80.8	0.0292424
81	0.0290484
81.2	0.0288544
81.4	0.0286604
81.6	0.0284664
81.8	0.0282723
82	0.0280207
82.2	0.0277621
82.4	0.0275035
82.6	0.0272449
82.8	0.0269863
83	0.0267277
83.2	0.0264691
83.4	0.0262105
83.6	0.0259519
83.8	0.0256936
84	0.0254408
84.2	0.025188
84.4	0.0249352
84.6	0.0246824
84.8	0.0244296
85	0.0241768
85.2	0.0239241
85.4	0.0236713
85.6	0.0234185
85.8	0.0232994
86	0.0232792
86.2	0.0232589
86.4	0.0232387
86.6	0.0232185
86.8	0.0231983
87	0.023178
87.2	0.0231578
87.4	0.0231376
87.6	0.0231174
87.8	0.0231916
88	0.0233089
88.2	0.0234261
88.4	0.0235433
88.6	0.0236605
88.8	0.0237778
89	0.023895
89.2	0.0240122
89.4	0.0241294
89.6	0.0242467
89.8	0.0243639
90	0.0244413
90.2	0.0244525
90.4	0.0244636
90.6	0.0244748
90.8	0.0244859
91	0.0244971
91.2	0.0245082
91.4	0.0245193
91.6	0.0245305
91.8	0.0245416
92	0.0245528
92.2	0.0245639
92.4	0.02445
92.6	0.0241874
92.8	0.0239247
93	0.0236621
93.2	0.0233995
93.4	0.0231369
93.6	0.0228742
93.8	0.0226116
94	0.022349
94.2	0.0220806
94.4	0.0217482
94.6	0.0214158
94.8	0.0210835
95	0.0207511
95.2	0.0204187
95.4	0.0200863
95.6	0.0197539
95.8	0.0194215
96	0.0190891
96.2	0.0187928
96.4	0.0185751
96.6	0.0183575
96.8	0.0181399
97	0.0179222
97.2	0.0177046
97.4	0.017487
97.6	0.0172693
97.8	0.0170517
98	0.016834
98.2	0.0166164
98.4	0.0163988
98.6	0.0161811
98.8	0.0159635
99	0.0157505
99.2	0.01554
99.4	0.0153295
99.6	0.015119
99.8	0.0149084
100	0.0146979
120	0.0115062
140	0.0120242
160	0.012977
180	0.0145151
200	0.0145241
220	0.0183616
240	0.0248492
260	0.0306559
280	0.0331569
300	0.0359926
320	0.0397121
340	0.0440714
360	0.0459055
380	0.0476829
400	0.0495418
420	0.0514008
440	0.0583416
460	0.0662906
