Material: main / MgF2 / Patwardhan
Optical constants. G. N. Patwardhan, J. S. Ginsberg, C. Y. Chen, M. M. Jadidi, A. L. Gaeta. Nonlinear refractive index of solids in mid-infrared, Opt. Lett. 46, 1824 (2021)
Comments: 100 fs. Spectrally resolved two-beam coupling.
Specs: {"n2_method": "SRTBC", "pulse_duration": "100e-15"}
wavelength (um)	n	2
2.3	6.60e-21
3.5	7.40e-21
4.5	8.20e-21
