Material: main / BiB3O6 / Miller-gammaY
Optical constants. S. Miller, F. Rotermund, G. Xu, F. Noack, V. Panyutin, V. Petrov, Polarization-dependent nonlinear refractive index of BiB3O6, Opt. Mater. 30, 1469 (2008)
Comments: E∥Z (γ); propagation ∥ Y. 56 ps. Z-scan.
Specs: {"n2_method": "Z-scan", "pulse_duration": "56e-12"}
wavelength (um)	n	2
1.064	1.65e-19
