Material: glass / cdgm / D-K59-25
Optical constants. CDGM Zemax catalog 2022-06 (obtained from http://www.cdgmgd.com)See also CDGM optical glass data sheets
Comments: anneal rate:25째C/h
Specs: {"n_is_absolute": false, "wavelength_is_vacuum": false, "temperature": "20.0 째C", "thermal_dispersion": [{"type": "Schott formula", "coefficients": "5.85e-06 2.25e-08 -1.51e-10 3.09e-07 -8.98e-10 0.268"}], "nd": 1.51698, "Vd": 63.4085, "glass_code": 517634, "density": "2.41 g/cm3", "thermal_expansion": [{"temperature_range": "-30 70 째C", "coefficient": "6e-06 K-1"}, {"temperature_range": "20 300 째C", "coefficient": "8e-06 K-1"}], "dPgF": -0.0029, "climatic_resistance": 1.0}
Dispersion formula 2, range 0.302 2.325 um, coefficients 0 1.16665743 0.00707953299 0.105028598 0.0261090052 0.990269002 98.6724455
wavelength (um)	k
0.310	6.2307E-06
0.320	2.4639E-06
0.330	9.7443E-07
0.340	4.0807E-07
0.350	1.9315E-07
0.360	1.0503E-07
0.370	6.2490E-08
0.380	5.1849E-08
0.390	3.7468E-08
0.400	3.1991E-08
0.420	3.3591E-08
0.440	3.5190E-08
0.460	2.9402E-08
0.480	3.0681E-08
0.500	2.7950E-08
0.550	2.6340E-08
0.600	3.3540E-08
0.650	3.6335E-08
0.700	3.3523E-08
0.800	3.1911E-08
0.850	1.3542E-08
0.900	1.4338E-08
0.950	1.5135E-08
1.000	1.5931E-08
1.060	1.6887E-08
1.200	1.9118E-08
1.400	2.8206E-07
1.600	6.3822E-08
1.800	1.5844E-07
2.000	4.0295E-07
2.200	2.4381E-06
2.400	4.0245E-06
