Material: glass / cdgm / D-K9GT
Optical constants. CDGM Zemax catalog 2022-06 (obtained from http://www.cdgmgd.com)See also CDGM optical glass data sheets
Comments: anneal rate:4째C/h
Specs: {"n_is_absolute": false, "wavelength_is_vacuum": false, "temperature": "20.0 째C", "thermal_dispersion": [{"type": "Schott formula", "coefficients": "4.87e-06 1.55e-08 -1.35e-11 4.17e-07 5.2e-10 0.177"}], "nd": 1.51633, "Vd": 64.058952, "glass_code": 516641, "density": "2.41 g/cm3", "thermal_expansion": [{"temperature_range": "-30 70 째C", "coefficient": "6.3e-06 K-1"}, {"temperature_range": "20 300 째C", "coefficient": "7.8e-06 K-1"}], "dPgF": -0.0027, "climatic_resistance": 1.0}
Dispersion formula 2, range 0.302 2.325 um, coefficients 0 0.567853792 0.00238581579 0.702269689 0.0135348332 1.08102455 107.748228
wavelength (um)	k
0.280	3.2458E-06
0.290	1.5359E-06
0.300	7.2530E-07
0.310	3.5491E-07
0.320	1.8480E-07
0.330	1.0447E-07
0.340	6.8501E-08
0.350	5.3428E-08
0.360	4.0390E-08
0.370	2.9592E-08
0.380	2.4289E-08
0.390	1.2439E-08
0.400	6.3726E-09
0.420	6.6912E-09
0.440	7.0098E-09
0.460	7.3285E-09
0.480	7.6471E-09
0.500	7.9657E-09
0.550	8.7623E-09
0.600	9.5589E-09
0.650	1.0355E-08
0.700	1.1152E-08
0.800	1.2745E-08
0.850	1.3542E-08
0.900	1.4338E-08
0.950	1.5135E-08
1.000	1.5931E-08
1.060	1.6887E-08
1.200	1.9118E-08
1.400	2.5923E-07
1.600	8.9440E-08
1.800	1.8743E-07
2.000	4.1928E-07
2.200	2.1586E-06
2.400	3.5817E-06
