Material: glass / cdgm / D-LAF79-25
Optical constants. CDGM Zemax catalog 2022-06 (obtained from http://www.cdgmgd.com)See also CDGM optical glass data sheets
Comments: anneal rate:25째C/h
Specs: {"n_is_absolute": false, "wavelength_is_vacuum": false, "temperature": "20.0 째C", "nd": 1.72986, "Vd": 40.497566, "glass_code": 730405, "density": "3.21 g/cm3", "thermal_expansion": [{"temperature_range": "-30 70 째C", "coefficient": "9e-06 K-1"}, {"temperature_range": "20 300 째C", "coefficient": "1.11e-05 K-1"}], "dPgF": -0.0049, "climatic_resistance": 3.0}
Dispersion formula 2, range 0.365 2.325 um, coefficients 0 0.244124156 0.0430784572 1.39592511 113.324709 1.66977539 0.00964211165
wavelength (um)	k
0.340	5.7367E-06
0.350	2.2240E-06
0.360	1.1048E-06
0.370	6.5702E-07
0.380	4.4205E-07
0.390	3.0637E-07
0.400	2.1393E-07
0.420	1.3296E-07
0.440	9.9438E-08
0.460	7.3953E-08
0.480	5.3854E-08
0.500	3.9989E-08
0.550	2.6340E-08
0.600	2.3933E-08
0.650	2.0732E-08
0.700	1.1152E-08
0.800	1.2745E-08
0.850	1.3542E-08
0.900	1.4338E-08
0.950	1.5135E-08
1.000	1.5931E-08
1.060	1.6887E-08
1.200	1.9118E-08
1.400	2.2304E-08
1.600	2.5490E-08
1.800	8.6203E-08
2.000	3.5405E-07
2.200	1.0089E-06
2.400	4.0009E-06
