Material: glass / cdgm / D-LAK52-25
Optical constants. CDGM Zemax catalog 2022-06 (obtained from http://www.cdgmgd.com)See also CDGM optical glass data sheets
Comments: anneal rate:25째C/h
Specs: {"n_is_absolute": false, "wavelength_is_vacuum": false, "temperature": "20.0 째C", "thermal_dispersion": [{"type": "Schott formula", "coefficients": "1.8e-06 1.72e-08 -5.24e-11 4.52e-07 1.37e-10 0.229"}], "nd": 1.72924, "Vd": 53.851219, "glass_code": 729539, "density": "4.0 g/cm3", "thermal_expansion": [{"temperature_range": "-30 70 째C", "coefficient": "6.1e-06 K-1"}, {"temperature_range": "20 300 째C", "coefficient": "7.8e-06 K-1"}], "dPgF": -0.0084, "climatic_resistance": 1.0}
Dispersion formula 2, range 0.302 2.325 um, coefficients 0 1.04345567 0.017366945 0.888612736 0.00301494124 1.2310265 87.1255673
wavelength (um)	k
0.280	2.7505E-06
0.290	2.1671E-06
0.300	1.7522E-06
0.310	1.4614E-06
0.320	9.3754E-07
0.330	6.3904E-07
0.340	4.2069E-07
0.350	2.7187E-07
0.360	1.6813E-07
0.370	1.0185E-07
0.380	6.4179E-08
0.390	4.6905E-08
0.400	3.5208E-08
0.420	2.6846E-08
0.440	1.7551E-08
0.460	1.4672E-08
0.480	1.1476E-08
0.500	7.9657E-09
0.550	8.7623E-09
0.600	9.5589E-09
0.650	1.0355E-08
0.700	1.1152E-08
0.800	1.2745E-08
0.850	1.3542E-08
0.900	1.4338E-08
0.950	1.5135E-08
1.000	1.5931E-08
1.060	1.6887E-08
1.200	1.9118E-08
1.400	3.3473E-08
1.600	5.1032E-08
1.800	1.7293E-07
2.000	5.8353E-07
2.200	1.8640E-06
2.400	8.2862E-06
