Material: glass / cdgm / D-ZF10-25
Optical constants. CDGM Zemax catalog 2022-06 (obtained from http://www.cdgmgd.com)See also CDGM optical glass data sheets
Comments: anneal rate:25째C/h
Specs: {"n_is_absolute": false, "wavelength_is_vacuum": false, "temperature": "20.0 째C", "thermal_dispersion": [{"type": "Schott formula", "coefficients": "-5.76e-06 6.62e-09 -3.57e-11 9.8e-07 1.12e-09 0.261"}], "nd": 1.68731, "Vd": 31.183804, "glass_code": 687312, "density": "2.84 g/cm3", "thermal_expansion": [{"temperature_range": "-30 70 째C", "coefficient": "1e-05 K-1"}, {"temperature_range": "20 300 째C", "coefficient": "1.29e-05 K-1"}], "dPgF": 0.0067, "climatic_resistance": 1.0}
Dispersion formula 2, range 0.365 2.325 um, coefficients 0 1.39531577 134.661574 0.180389834 0.0604305431 1.57395389 0.0122657049
wavelength (um)	k
0.360	8.5821E-06
0.370	3.0081E-06
0.380	1.3027E-06
0.390	6.9253E-07
0.400	3.9607E-07
0.420	1.8907E-07
0.440	1.3201E-07
0.460	1.0773E-07
0.480	8.4972E-08
0.500	6.4177E-08
0.550	3.0745E-08
0.600	3.3540E-08
0.650	4.1547E-08
0.700	3.3523E-08
0.800	1.2745E-08
0.850	1.3542E-08
0.900	1.4338E-08
0.950	1.5135E-08
1.000	1.5931E-08
1.060	1.6887E-08
1.200	1.9118E-08
1.400	2.2304E-08
1.600	2.5490E-08
1.800	3.0401E-07
2.000	7.1616E-07
2.200	1.5360E-06
2.400	2.6597E-06
