Material: glass / cdgm / D-ZK3-25
Optical constants. CDGM Zemax catalog 2022-06 (obtained from http://www.cdgmgd.com)See also CDGM optical glass data sheets
Comments: anneal rate:25째C/h
Specs: {"n_is_absolute": false, "wavelength_is_vacuum": false, "temperature": "20.0 째C", "thermal_dispersion": [{"type": "Schott formula", "coefficients": "1.68e-06 9.68e-09 -2e-11 5.34e-07 1.41e-09 0.172"}], "nd": 1.58833, "Vd": 61.284362, "glass_code": 588613, "density": "2.83 g/cm3", "thermal_expansion": [{"temperature_range": "-30 70 째C", "coefficient": "7.2e-06 K-1"}, {"temperature_range": "20 300 째C", "coefficient": "9.3e-06 K-1"}], "dPgF": -0.0039, "climatic_resistance": 4.0}
Dispersion formula 2, range 0.302 2.325 um, coefficients 0 1.24347604 108.031442 0.918798491 0.0139520404 0.567180042 0.00127620015
wavelength (um)	k
0.290	9.0280E-06
0.300	6.0297E-06
0.310	3.7352E-06
0.320	2.1492E-06
0.330	1.2133E-06
0.340	6.7225E-07
0.350	3.4972E-07
0.360	1.8948E-07
0.370	1.0185E-07
0.380	6.1092E-08
0.390	4.0610E-08
0.400	2.8778E-08
0.420	2.0114E-08
0.440	1.7551E-08
0.460	1.4672E-08
0.480	1.5310E-08
0.500	1.1955E-08
0.550	8.7623E-09
0.600	9.5589E-09
0.650	1.0355E-08
0.700	1.1152E-08
0.800	1.2745E-08
0.850	1.3542E-08
0.900	1.4338E-08
0.950	1.5135E-08
1.000	1.5931E-08
1.060	1.6887E-08
1.200	1.9118E-08
1.400	1.2323E-07
1.600	5.1032E-08
1.800	3.0401E-07
2.000	7.4949E-07
2.200	3.0733E-06
2.400	7.0868E-06
