Material: glass / cdgm / D-ZLAF52LA-25
Optical constants. CDGM Zemax catalog 2022-06 (obtained from http://www.cdgmgd.com)See also CDGM optical glass data sheets
Comments: anneal rate:25째C/h
Specs: {"n_is_absolute": false, "wavelength_is_vacuum": false, "temperature": "20.0 째C", "thermal_dispersion": [{"type": "Schott formula", "coefficients": "5.23e-06 1.56e-08 -3.55e-11 8.33e-07 7.37e-10 0.217"}], "nd": 1.80882, "Vd": 40.970313, "glass_code": 809410, "density": "4.56 g/cm3", "thermal_expansion": [{"temperature_range": "-30 70 째C", "coefficient": "6.6e-06 K-1"}, {"temperature_range": "20 300 째C", "coefficient": "8.3e-06 K-1"}], "dPgF": -0.0058, "climatic_resistance": 1.0}
Dispersion formula 2, range 0.365 2.325 um, coefficients 0 1.85743559 0.00962363637 0.323469816 0.0398398385 1.2894946 98.4654718
wavelength (um)	k
0.340	6.8337E-06
0.350	2.6949E-06
0.360	1.2785E-06
0.370	6.9405E-07
0.380	4.2112E-07
0.390	2.8248E-07
0.400	2.0713E-07
0.420	1.3296E-07
0.440	9.9438E-08
0.460	7.3953E-08
0.480	5.7730E-08
0.500	3.9989E-08
0.550	2.1939E-08
0.600	2.3933E-08
0.650	2.0732E-08
0.700	1.6736E-08
0.800	1.2745E-08
0.850	1.3542E-08
0.900	1.4338E-08
0.950	1.5135E-08
1.000	1.5931E-08
1.060	1.6887E-08
1.200	1.9118E-08
1.400	4.4653E-08
1.600	2.5490E-08
1.800	1.1505E-07
2.000	5.0119E-07
2.200	1.3838E-06
2.400	5.4943E-06
