Material: glass / cdgm / D-ZLAF85A-25
Optical constants. CDGM Zemax catalog 2022-06 (obtained from http://www.cdgmgd.com)See also CDGM optical glass data sheets
Comments: anneal rate:25°C/h
Specs: {"n_is_absolute": false, "wavelength_is_vacuum": false, "temperature": "20.0 °C", "thermal_dispersion": [{"type": "Schott formula", "coefficients": "5.25e-06 2.15e-08 -1.05e-10 8.21e-07 -6.33e-10 0.216"}], "nd": 1.8511, "Vd": 40.055609, "glass_code": 851401, "density": "5.22 g/cm3", "thermal_expansion": [{"temperature_range": "20 300 °C", "coefficient": "7.8e-06 K-1"}], "dPgF": -0.0075, "climatic_resistance": 1.0}
Dispersion formula 2, range 0.365 2.325 um, coefficients 0 1.37428361 105.610997 0.412199165 0.0373787374 1.91320505 0.00975370563
wavelength (um)	k
0.340	8.7091E-06
0.350	3.6468E-06
0.360	1.7127E-06
0.370	8.8656E-07
0.380	5.4167E-07
0.390	3.5818E-07
0.400	2.6195E-07
0.420	1.6441E-07
0.440	1.2475E-07
0.460	9.6434E-08
0.480	7.7169E-08
0.500	6.0135E-08
0.550	3.5155E-08
0.600	3.8351E-08
0.650	3.6335E-08
0.700	2.7922E-08
0.800	2.5516E-08
0.850	1.3542E-08
0.900	1.4338E-08
0.950	1.5135E-08
1.000	1.5931E-08
1.060	1.6887E-08
1.200	1.9118E-08
1.400	2.2304E-08
1.600	2.5490E-08
1.800	2.8677E-08
2.000	2.7289E-07
2.200	8.4280E-07
2.400	3.9069E-06
