Material: glass / cdgm / D-ZLAF85LN-25
Optical constants. CDGM Zemax catalog 2022-06 (obtained from http://www.cdgmgd.com)See also CDGM optical glass data sheets
Comments: anneal rate:25째C/h
Specs: {"n_is_absolute": false, "wavelength_is_vacuum": false, "temperature": "20.0 째C", "thermal_dispersion": [{"type": "Schott formula", "coefficients": "4.18e-06 1.74e-08 -3.81e-11 8.61e-07 5.26e-10 0.215"}], "nd": 1.84443, "Vd": 40.067973, "glass_code": 844401, "density": "4.96 g/cm3", "thermal_expansion": [{"temperature_range": "-30 70 째C", "coefficient": "6.3e-06 K-1"}, {"temperature_range": "20 300 째C", "coefficient": "8.2e-06 K-1"}], "dPgF": -0.0062, "climatic_resistance": 1.0}
Dispersion formula 2, range 0.365 2.325 um, coefficients 0 1.22657126 93.6444885 0.367411998 0.0394561346 1.93493865 0.00982834912
wavelength (um)	k
0.340	7.3542E-06
0.350	2.9721E-06
0.360	1.3010E-06
0.370	6.6439E-07
0.380	3.6943E-07
0.390	2.3860E-07
0.400	1.5658E-07
0.420	8.8048E-08
0.440	6.3599E-08
0.460	5.1610E-08
0.480	3.8389E-08
0.500	2.3945E-08
0.550	2.1939E-08
0.600	2.3933E-08
0.650	2.0732E-08
0.700	1.6736E-08
0.800	1.2745E-08
0.850	1.3542E-08
0.900	1.4338E-08
0.950	1.5135E-08
1.000	1.5931E-08
1.060	1.6887E-08
1.200	1.9118E-08
1.400	2.2304E-08
1.600	2.5490E-08
1.800	8.6203E-08
2.000	3.8663E-07
2.200	1.1019E-06
2.400	4.7943E-06
