Material: glass / cdgm / D-ZLAF85LS
Optical constants. CDGM Zemax catalog 2022-06 (obtained from http://www.cdgmgd.com)See also CDGM optical glass data sheets
Comments: anneal rate:4°C/h
Specs: {"n_is_absolute": false, "wavelength_is_vacuum": false, "temperature": "20.0 °C", "nd": 1.8545, "Vd": 40.593546, "glass_code": 855406, "density": "5.29 g/cm3", "thermal_expansion": [{"temperature_range": "20 300 °C", "coefficient": "8.1e-06 K-1"}], "dPgF": -0.008}
Dispersion formula 2, range 0.365 2.325 um, coefficients 0 0.638690484 0.0319257637 1.69998504 0.00791790668 1.45547394 112.179157
wavelength (um)	k
0.340	6.4556E-06
0.350	2.6083E-06
0.360	1.2078E-06
0.370	6.4600E-07
0.380	3.8656E-07
0.390	2.5204E-07
0.400	1.8344E-07
0.420	1.1561E-07
0.440	9.2241E-08
0.460	6.2765E-08
0.480	4.9982E-08
0.500	3.5972E-08
0.550	2.1939E-08
0.600	1.9137E-08
0.650	2.0732E-08
0.700	1.6736E-08
0.800	1.2745E-08
0.850	1.3542E-08
0.900	1.4338E-08
0.950	1.5135E-08
1.000	1.5931E-08
1.060	1.6887E-08
1.200	1.9118E-08
1.400	2.2304E-08
1.600	2.5490E-08
1.800	8.6203E-08
2.000	3.5405E-07
2.200	9.1643E-07
2.400	3.8601E-06
