Material: glass / cdgm / D-ZPK1A-25
Optical constants. CDGM Zemax catalog 2022-06 (obtained from http://www.cdgmgd.com)See also CDGM optical glass data sheets
Comments: anneal rate:25째C/h
Specs: {"n_is_absolute": false, "wavelength_is_vacuum": false, "temperature": "20.0 째C", "thermal_dispersion": [{"type": "Schott formula", "coefficients": "-1.27e-05 7.36e-09 -1.75e-13 4.58e-07 2.54e-10 0.183"}], "nd": 1.61999, "Vd": 63.763831, "glass_code": 620638, "density": "3.69 g/cm3", "thermal_expansion": [{"temperature_range": "-30 70 째C", "coefficient": "1.05e-05 K-1"}, {"temperature_range": "20 300 째C", "coefficient": "1.28e-05 K-1"}], "dPgF": 0.0062}
Dispersion formula 2, range 0.302 2.325 um, coefficients 0 0.860621496 0.0142471941 0.723408663 0.00293226364 0.91527878 109.074599
wavelength (um)	k
0.300	8.3713E-06
0.310	6.9404E-06
0.320	4.6666E-06
0.330	3.0756E-06
0.340	1.7177E-06
0.350	9.5391E-07
0.360	5.0290E-07
0.370	2.6155E-07
0.380	1.3923E-07
0.390	8.4947E-08
0.400	5.4578E-08
0.420	3.6968E-08
0.440	3.5190E-08
0.460	2.5714E-08
0.480	2.2987E-08
0.500	1.9944E-08
0.550	1.7542E-08
0.600	1.9137E-08
0.650	2.5928E-08
0.700	1.6736E-08
0.800	1.9127E-08
0.850	1.3542E-08
0.900	1.4338E-08
0.950	1.5135E-08
1.000	1.5931E-08
1.060	1.6887E-08
1.200	1.9118E-08
1.400	2.2304E-08
1.600	6.3822E-08
1.800	2.1649E-07
2.000	4.5199E-07
2.200	1.0460E-06
2.400	1.7383E-06
