Material: glass / cdgm / H-F5
Optical constants. CDGM Zemax catalog 2022-06 (obtained from http://www.cdgmgd.com)See also CDGM optical glass data sheets
Specs: {"n_is_absolute": false, "wavelength_is_vacuum": false, "temperature": "20.0 °C", "thermal_dispersion": [{"type": "Schott formula", "coefficients": "-7.35e-07 1.37e-08 -1.86e-11 7.71e-07 6.53e-10 0.265"}], "nd": 1.62435, "Vd": 35.923444, "glass_code": 624359, "density": "2.69 g/cm3", "thermal_expansion": [{"temperature_range": "-30 70 °C", "coefficient": "7.8e-06 K-1"}, {"temperature_range": "20 300 °C", "coefficient": "9.7e-06 K-1"}], "dPgF": 0.0046, "climatic_resistance": 1.0}
Dispersion formula 2, range 0.365 2.325 um, coefficients 0 1.43541709 0.0108394789 0.133104631 0.058152846 1.2215186 120.768299
wavelength (um)	k
0.360	5.3969E-06
0.370	1.5386E-06
0.380	5.0571E-07
0.390	1.9864E-07
0.400	9.6955E-08
0.420	4.0350E-08
0.440	3.5190E-08
0.460	2.9402E-08
0.480	2.6832E-08
0.500	2.3945E-08
0.550	2.1939E-08
0.600	1.9137E-08
0.650	1.5541E-08
0.700	1.1152E-08
0.800	1.2745E-08
0.850	1.3542E-08
0.900	1.4338E-08
0.950	1.5135E-08
1.000	1.5931E-08
1.060	1.6887E-08
1.200	1.9118E-08
1.400	8.9485E-08
1.600	1.0227E-07
1.800	3.3330E-07
2.000	6.4970E-07
2.200	1.8251E-06
2.400	2.3764E-06
