Material: glass / cdgm / H-K9LAGT
Optical constants. CDGM Zemax catalog 2022-06 (obtained from http://www.cdgmgd.com)See also CDGM optical glass data sheets
Specs: {"n_is_absolute": false, "wavelength_is_vacuum": false, "temperature": "20.0 °C", "thermal_dispersion": [{"type": "Schott formula", "coefficients": "9.03e-07 1.85e-08 -2.98e-11 4.55e-07 1e-10 0.182"}], "nd": 1.5168, "Vd": 64.198695, "glass_code": 517642, "density": "2.51 g/cm3", "thermal_expansion": [{"temperature_range": "-30 70 °C", "coefficient": "7.2e-06 K-1"}, {"temperature_range": "20 300 °C", "coefficient": "8.8e-06 K-1"}], "dPgF": -0.0013, "climatic_resistance": 1.0}
Dispersion formula 2, range 0.302 2.325 um, coefficients 0 0.684743072 0.00313539741 0.586772376 0.014810133 1.14804248 116.583792
wavelength (um)	k
0.280	3.2268E-06
0.290	1.5224E-06
0.300	6.8043E-07
0.310	2.9859E-07
0.320	1.4406E-07
0.330	6.9181E-08
0.340	3.8147E-08
0.350	1.6762E-08
0.360	8.6073E-09
0.370	5.8946E-09
0.380	6.0539E-09
0.390	6.2133E-09
0.400	6.3726E-09
0.420	6.6912E-09
0.440	7.0098E-09
0.460	7.3285E-09
0.480	7.6471E-09
0.500	7.9657E-09
0.550	8.7623E-09
0.600	9.5589E-09
0.650	1.0355E-08
0.700	1.1152E-08
0.800	1.2745E-08
0.850	1.3542E-08
0.900	1.4338E-08
0.950	1.5135E-08
1.000	1.5931E-08
1.060	1.6887E-08
1.200	1.9118E-08
1.400	1.9102E-07
1.600	8.9440E-08
1.800	3.0401E-07
2.000	7.3281E-07
2.200	2.3377E-06
2.400	3.5356E-06
