Material: glass / cdgm / H-ZF52
Optical constants. CDGM Zemax catalog 2022-06 (obtained from http://www.cdgmgd.com)See also CDGM optical glass data sheets
Specs: {"n_is_absolute": false, "wavelength_is_vacuum": false, "temperature": "20.0 °C", "thermal_dispersion": [{"type": "Schott formula", "coefficients": "-6.18e-06 1.63e-08 -4.5e-11 1.12e-06 1.19e-09 0.291"}], "nd": 1.84666, "Vd": 23.784497, "glass_code": 847238, "glass_status": "standard", "density": "3.51 g/cm3", "thermal_expansion": [{"temperature_range": "-30 70 °C", "coefficient": "8.8e-06 K-1"}, {"temperature_range": "20 300 °C", "coefficient": "1.08e-05 K-1"}], "dPgF": 0.0155, "climatic_resistance": 1.0}
Dispersion formula 2, range 0.4047 2.325 um, coefficients 0 0.409982615 0.0621421199 2.37517176 185.055134 1.83913582 0.0136093459
wavelength (um)	k
0.370	7.0899E-06
0.380	2.6741E-06
0.390	1.2849E-06
0.400	7.5436E-07
0.420	3.6703E-07
0.440	2.5034E-07
0.460	1.7622E-07
0.480	1.4005E-07
0.500	1.0891E-07
0.550	5.7271E-08
0.600	4.3166E-08
0.650	5.1986E-08
0.700	5.0361E-08
0.800	3.8312E-08
0.850	2.0323E-08
0.900	2.1518E-08
0.950	2.2714E-08
1.000	2.3909E-08
1.060	2.5344E-08
1.200	1.9118E-08
1.400	5.5844E-08
1.600	1.0227E-07
1.800	3.0401E-07
2.000	5.5054E-07
2.200	1.1019E-06
2.400	2.2256E-06
