Material: glass / cdgm / H-ZF71GT
Optical constants. CDGM Zemax catalog 2022-06 (obtained from http://www.cdgmgd.com)See also CDGM optical glass data sheets
Specs: {"n_is_absolute": false, "wavelength_is_vacuum": false, "temperature": "20.0 °C", "thermal_dispersion": [{"type": "Schott formula", "coefficients": "-9.66e-06 1.15e-08 -5.06e-11 9.75e-07 1.26e-09 0.313"}], "nd": 1.8081, "Vd": 22.698087, "glass_code": 808227, "density": "3.3 g/cm3", "thermal_expansion": [{"temperature_range": "-30 70 °C", "coefficient": "9.3e-06 K-1"}, {"temperature_range": "20 300 °C", "coefficient": "1.05e-05 K-1"}], "dPgF": 0.0224, "climatic_resistance": 1.0}
Dispersion formula 2, range 0.4047 2.325 um, coefficients 0 0.406804868 0.064515213 1.70831097 0.0127703237 2.36137303 163.275585
wavelength (um)	k
0.370	1.1518E-05
0.380	3.4174E-06
0.390	1.0282E-06
0.400	4.4328E-07
0.420	1.9261E-07
0.440	1.4293E-07
0.460	1.1527E-07
0.480	8.8880E-08
0.500	7.2272E-08
0.550	3.9569E-08
0.600	3.3540E-08
0.650	3.1129E-08
0.700	2.7922E-08
0.800	2.5516E-08
0.850	1.3542E-08
0.900	1.4338E-08
0.950	1.5135E-08
1.000	1.5931E-08
1.060	1.6887E-08
1.200	1.9118E-08
1.400	5.5844E-08
1.600	1.0227E-07
1.800	2.4560E-07
2.000	5.1762E-07
2.200	1.4788E-06
2.400	2.9472E-06
