Material: glass / cdgm / H-ZF72AGT
Optical constants. CDGM Zemax catalog 2022-06 (obtained from http://www.cdgmgd.com)See also CDGM optical glass data sheets
Specs: {"n_is_absolute": false, "wavelength_is_vacuum": false, "temperature": "20.0 °C", "thermal_dispersion": [{"type": "Schott formula", "coefficients": "-5.63e-06 1.59e-08 -4.96e-11 1.13e-06 1.73e-09 0.328"}], "nd": 1.92286, "Vd": 18.895887, "glass_code": 923189, "density": "3.57 g/cm3", "thermal_expansion": [{"temperature_range": "-30 70 °C", "coefficient": "6.7e-06 K-1"}, {"temperature_range": "20 300 °C", "coefficient": "8.4e-06 K-1"}], "dPgF": 0.0363, "climatic_resistance": 1.0}
Dispersion formula 2, range 0.4047 2.325 um, coefficients 0 0.470478653 0.0736024509 2.55040233 149.306621 2.00593441 0.0162999226
wavelength (um)	k
0.390	7.7244E-06
0.400	2.4033E-06
0.420	4.7314E-07
0.440	2.6919E-07
0.460	2.0708E-07
0.480	1.7188E-07
0.500	1.3352E-07
0.550	7.0594E-08
0.600	4.7987E-08
0.650	4.6764E-08
0.700	4.4743E-08
0.800	3.8312E-08
0.850	3.3905E-08
0.900	2.8705E-08
0.950	2.2714E-08
1.000	1.5931E-08
1.060	1.6887E-08
1.200	1.9118E-08
1.400	2.2304E-08
1.600	6.3822E-08
1.800	1.7293E-07
2.000	3.3778E-07
2.200	6.9645E-07
2.400	1.2224E-06
