Material: glass / cdgm / H-ZLAF76A
Optical constants. CDGM Zemax catalog 2022-06 (obtained from http://www.cdgmgd.com)See also CDGM optical glass data sheets
Specs: {"n_is_absolute": false, "wavelength_is_vacuum": false, "temperature": "20.0 °C", "thermal_dispersion": [{"type": "Schott formula", "coefficients": "4.09e-06 1.67e-08 -4.15e-11 1.04e-06 1.1e-09 0.255"}], "nd": 1.85013, "Vd": 30.012319, "glass_code": 850300, "density": "4.31 g/cm3", "thermal_expansion": [{"temperature_range": "-30 70 °C", "coefficient": "6.4e-06 K-1"}, {"temperature_range": "20 300 °C", "coefficient": "7.6e-06 K-1"}], "dPgF": 0.0052, "climatic_resistance": 1.0}
Dispersion formula 2, range 0.365 2.325 um, coefficients 0 2.00079286 0.012959987 1.53020671 131.107483 0.289955307 0.057737977
wavelength (um)	k
0.360	1.0243E-05
0.370	4.0466E-06
0.380	1.9543E-06
0.390	1.1516E-06
0.400	7.9088E-07
0.420	4.8858E-07
0.440	3.6502E-07
0.460	2.8934E-07
0.480	2.3635E-07
0.500	1.9154E-07
0.550	1.0632E-07
0.600	7.2162E-08
0.650	4.6764E-08
0.700	3.9130E-08
0.800	3.8312E-08
0.850	2.7111E-08
0.900	2.8705E-08
0.950	3.0300E-08
1.000	3.9889E-08
1.060	3.3809E-08
1.200	3.8274E-08
1.400	4.4653E-08
1.600	6.3822E-08
1.800	1.5844E-07
2.000	2.7289E-07
2.200	6.4188E-07
2.400	1.5717E-06
