Material: main / Si / Bristow
Optical constants. A. D. Bristow, N. Rotenberg, H. M. van Driel. Two-photon absorption and Kerr coefficients of silicon for 850â€“2200nm, Appl. Phys. Lett. 90, 37940 (2007)
Comments: 200 fs. Z-scan.
Specs: {"n2_method": "Z-scan", "pulse_duration": "200e-15"}
wavelength (um)	n	2
1.03	2.71e-18
1.16	5.21e-18
1.22	4.70e-18
1.40	5.57e-18
1.48	5.48e-18
1.55	4.84e-18
1.62	8.24e-18
1.69	6.57e-18
1.76	1.15e-17
1.85	1.25e-17
1.95	1.12e-17
2.15	1.01e-17
