Material: doped crystals / Yb-KY(WO4)2 / Selivanov-alpha
Optical constants. A. G. Selivanov, I. A. Denisov, N. V. Kuleshov, K. V. Yumashev. Nonlinear refractive properties of Yb3+-doped KY(WO4)2 and YVO4 laser crystals, Appl. Phys. B 83, 61 (2006)
Comments: n2α (E∥Np). 100 fs. Z-scan.
Specs: {"n2_method": "Z-scan", "pulse_duration": "100e-15"}
wavelength (um)	n	2
1.08	8.6e-20
