Material: fuel / biodisel / Wang-40C
Optical constants. C. C. Wang, X. C. Li, J. Y. Tan, L. H. Liu. Experimental measurement of optical constant of biodiesel by double optical pathlength transmission method, Laser Optoelectron. Prog. 52, 051206 (2015) (Numerical data kindly provided by Chengchao Wang)
Comments: Biodiesel, 40 °C.
Specs: {"n_is_absolute": true, "wavelength_is_vacuum": true, "temperature": "40.0 °C"}
wavelength (um)	n
0.300	1.585
0.340	1.519
0.400	1.497
0.450	1.481
0.500	1.457
0.550	1.451
0.600	1.448
0.650	1.446
0.700	1.444
0.750	1.442
0.800	1.440
0.840	1.439
0.900	1.438
0.950	1.437
1.000	1.436
1.050	1.435
1.100	1.435
1.150	1.432
1.200	1.432
1.250	1.432
1.300	1.432
1.350	1.431
1.400	1.431
1.450	1.430
1.500	1.430
1.550	1.429
1.600	1.429
1.650	1.428
1.700	1.428
1.750	1.427
1.800	1.427
1.850	1.427
1.900	1.425
1.950	1.425
2.000	1.424
2.050	1.424
2.100	1.424
2.150	1.423
2.200	1.423
2.250	1.422
2.300	1.421
2.350	1.420
2.400	1.419
2.450	1.418
2.500	1.417
wavelength (um)	k
0.300	8.596E-06
0.350	1.313E-05
0.380	7.039E-06
0.390	3.688E-06
0.400	2.271E-06
0.450	6.884E-07
0.480	4.089E-07
0.490	3.441E-07
0.500	2.856E-07
0.530	1.855E-07
0.550	1.379E-07
0.600	8.345E-08
0.650	6.699E-08
0.700	6.381E-08
0.750	1.008E-07
0.800	7.946E-08
0.840	7.286E-08
0.900	3.820E-07
0.950	2.573E-07
0.960	1.987E-07
0.970	1.325E-07
1.000	1.628E-07
1.010	4.292E-07
1.030	4.905E-07
1.060	3.916E-07
1.080	4.010E-07
1.100	3.495E-07
1.120	3.552E-07
1.130	5.388E-07
1.140	8.422E-07
1.150	1.597E-06
1.160	3.772E-06
1.170	5.511E-06
1.180	6.036E-06
1.190	8.791E-06
1.200	1.126E-05
1.240	2.498E-06
1.250	1.525E-06
1.300	5.424E-07
1.360	2.004E-06
1.370	4.244E-06
1.380	6.114E-06
1.390	1.025E-05
1.400	7.699E-06
1.450	5.374E-06
1.500	1.681E-06
1.510	1.366E-06
1.530	1.267E-06
1.540	1.241E-06
1.550	8.425E-07
1.600	6.539E-07
1.610	1.750E-06
1.630	2.893E-06
1.640	4.028E-06
1.650	6.398E-06
1.670	1.626E-05
1.680	2.562E-05
1.690	3.836E-05
1.700	6.689E-05
1.750	7.502E-05
1.800	4.756E-05
1.850	3.184E-05
1.900	2.637E-05
1.950	2.675E-05
2.000	2.618E-05
2.050	2.673E-05
2.100	2.875E-05
2.150	5.370E-05
2.200	5.319E-05
2.250	2.538E-04
2.300	5.464E-04
2.350	5.900E-04
2.400	5.731E-04
2.450	4.329E-04
2.500	3.407E-04
