Material: main / ZnTe / Sheik-Bahae
Optical constants. M. Sheik-Bahae, D. C. Hutchings, D. J. Hagan, E. W. Van Stryland. Dispersion of bound electron nonlinear refraction in solids, IEEE J. Quantum Electron. 27, 1296 (1991)
Comments: 40 ps. Z-scan.
Specs: {"n2_method": "Z-scan", "pulse_duration": "40e-12"}
wavelength (um)	n	2
1.064	1.25e-17
