Material: semiconductor alloys / GaAs-InAs / Le
Optical constants. T. N. Le, J-L. Pelouard, F. Charra, S. Vassant. Determination of the far-infrared dielectric function of a thin InGaAs layer using a detuned Salisbury screen. Optical Material Express 12, 2711â€“2723 (2022)[Calculation script (Python)]
Comments: In1-xGaxAs; x=0.47. Thin film: 310 nm. Room temperature.
Specs: {"n_is_absolute": true, "wavelength_is_vacuum": true, "film_thickness": "310e-9", "substrate": "Ge"}
wavelength (um)	n	k
16.66817	3.29855	0.00000
16.69668	3.29829	0.00000
16.72529	3.29802	0.00000
16.75400	3.29776	0.00000
16.78281	3.29749	0.00000
16.81172	3.29722	0.00000
16.84072	3.29694	0.00000
16.86983	3.29667	0.00000
16.89904	3.29639	0.00000
16.92834	3.29611	0.00000
16.95775	3.29583	0.00000
16.98727	3.29555	0.00000
17.01688	3.29527	0.00000
17.04660	3.29498	0.00000
17.07643	3.29469	0.00000
17.10635	3.29440	0.00000
17.13639	3.29411	0.00000
17.16652	3.29382	0.00000
17.19677	3.29352	0.00000
17.22712	3.29322	0.00000
17.25758	3.29292	0.00000
17.28815	3.29262	0.00000
17.31882	3.29232	0.00000
17.34961	3.29201	0.00000
17.38050	3.29170	0.00000
17.41150	3.29139	0.00000
17.44262	3.29108	0.00000
17.47384	3.29076	0.00000
17.50518	3.29045	0.00000
17.53663	3.29013	0.00000
17.56820	3.28981	0.00000
17.59988	3.28948	0.00000
17.63167	3.28916	0.00000
17.66358	3.28883	0.00000
17.69560	3.28850	0.00000
17.72774	3.28816	0.00000
17.75999	3.28783	0.00000
17.79237	3.28749	0.00000
17.82486	3.28715	0.00000
17.85747	3.28681	0.00000
17.89020	3.28646	0.00000
17.92305	3.28611	0.00000
17.95603	3.28576	0.00000
17.98912	3.28541	0.00000
18.02233	3.28505	0.00000
18.05567	3.28469	0.00000
18.08913	3.28433	0.00000
18.12272	3.28397	0.00000
18.15643	3.28360	0.00000
18.19027	3.28323	0.00000
18.22423	3.28286	0.00000
18.25832	3.28248	0.00000
18.29254	3.28211	0.00000
18.32689	3.28173	0.00000
18.36136	3.28134	0.00000
18.39597	3.28096	0.00000
18.43070	3.28057	0.00000
18.46557	3.28017	0.00000
18.50057	3.27978	0.00000
18.53570	3.27938	0.00000
18.57097	3.27898	0.00000
18.60637	3.27857	0.00000
18.64191	3.27816	0.00000
18.67758	3.27775	0.00000
18.71339	3.27734	0.00000
18.74934	3.27692	0.00000
18.78542	3.27650	0.00000
18.82165	3.27608	0.00000
18.85801	3.27565	0.00000
18.89451	3.27522	0.00000
18.93116	3.27478	0.00000
18.96795	3.27434	0.00000
19.00488	3.27390	0.00000
19.04196	3.27346	0.00000
19.07918	3.27301	0.00000
19.11655	3.27256	0.00000
19.15406	3.27210	0.00000
19.19172	3.27164	0.00000
19.22953	3.27118	0.00000
19.26749	3.27071	0.00000
19.30560	3.27024	0.00000
19.34386	3.26976	0.00000
19.38227	3.26928	0.00000
19.42084	3.26880	0.00000
19.45956	3.26831	0.00000
19.49843	3.26782	0.00000
19.53746	3.26732	0.00000
19.57664	3.26682	0.00000
19.61599	3.26632	0.00000
19.65549	3.26581	0.00000
19.69515	3.26530	0.00000
19.73497	3.26478	0.00000
19.77495	3.26426	0.00000
19.81510	3.26373	0.00000
19.85541	3.26320	0.00000
19.89588	3.26266	0.00000
19.93652	3.26212	0.00000
19.97732	3.26158	0.00000
20.01829	3.26103	0.00000
20.05943	3.26047	0.00000
20.10074	3.25991	0.00000
20.14222	3.25935	0.00000
20.18387	3.25878	0.00000
20.22570	3.25820	0.00000
20.26770	3.25762	0.00000
20.30987	3.25704	0.00000
20.35222	3.25645	0.00000
20.39474	3.25585	0.00000
20.43745	3.25525	0.00000
20.48033	3.25464	0.00000
20.52339	3.25403	0.00000
20.56664	3.25341	0.00000
20.61006	3.25278	0.00000
20.65368	3.25215	0.00000
20.69747	3.25152	0.00000
20.74145	3.25088	0.00000
20.78562	3.25023	0.00000
20.82998	3.24957	0.00000
20.87453	3.24891	0.00000
20.91927	3.24824	0.00000
20.96420	3.24757	0.00000
21.00932	3.24689	0.00000
21.05464	3.24620	0.00000
21.10016	3.24551	0.00000
21.14587	3.24481	0.00000
21.19178	3.24410	0.00000
21.23789	3.24339	0.00000
21.28420	3.24267	0.00000
21.33071	3.24194	0.00000
21.37743	3.24120	0.00000
21.42435	3.24046	0.00000
21.47148	3.23971	0.00000
21.51882	3.23895	0.00000
21.56637	3.23818	0.00000
21.61412	3.23741	0.00000
21.66209	3.23662	0.00000
21.71027	3.23583	0.00000
21.75867	3.23504	0.00000
21.80728	3.23423	0.00000
21.85612	3.23341	0.00000
21.90517	3.23259	0.00000
21.95444	3.23176	0.00000
22.00393	3.23092	0.00000
22.05365	3.23006	0.00000
22.10359	3.22921	0.00000
22.15376	3.22834	0.00000
22.20415	3.22746	0.00000
22.25478	3.22657	0.00000
22.30564	3.22567	0.00000
22.35673	3.22476	0.00000
22.40805	3.22385	0.00000
22.45961	3.22292	0.00000
22.51141	3.22198	0.00000
22.56345	3.22103	0.00000
22.61573	3.22007	0.00000
22.66825	3.21910	0.00000
22.72102	3.21812	0.00000
22.77404	3.21713	0.00000
22.82730	3.21613	0.00000
22.88081	3.21511	0.00000
22.93457	3.21408	0.00000
22.98859	3.21304	0.00000
23.04286	3.21199	0.00000
23.09739	3.21093	0.00000
23.15217	3.20985	0.00000
23.20722	3.20876	0.00000
23.26253	3.20766	0.00000
23.31810	3.20654	0.00000
23.37394	3.20541	0.00000
23.43005	3.20427	0.00000
23.48643	3.20311	0.00000
23.54308	3.20194	0.00000
23.60000	3.20076	0.00000
23.65720	3.19956	0.00000
23.71468	3.19834	0.00000
23.77244	3.19711	0.00000
23.83048	3.19586	0.00000
23.88880	3.19460	0.00000
23.94741	3.19332	0.00000
24.00631	3.19203	0.00000
24.06550	3.19072	0.00000
24.12498	3.18939	0.00000
24.18476	3.18804	0.00000
24.24483	3.18668	0.00000
24.30520	3.18529	0.00000
24.36588	3.18389	0.00000
24.42685	3.18247	0.00000
24.48814	3.18103	0.00000
24.54973	3.17958	0.00000
24.61163	3.17810	0.00000
24.67385	3.17660	0.00000
24.73638	3.17508	0.00000
24.79923	3.17354	0.00000
24.86240	3.17198	0.00000
24.92589	3.17039	0.00000
24.98970	3.16878	0.00000
25.05385	3.16715	0.00000
25.11832	3.16550	0.00000
25.18313	3.16382	0.00000
25.24827	3.16212	0.00000
25.31375	3.16039	0.00000
25.37957	3.15864	0.00000
25.44573	3.15686	0.00000
25.51224	3.15506	0.00000
25.57910	3.15322	0.00000
25.64631	3.15136	0.00000
25.71387	3.14947	0.00000
25.78179	3.14755	0.00000
25.85007	3.14560	0.00000
25.91872	3.14362	0.00000
25.98773	3.14161	0.00000
26.05710	3.13957	0.00000
26.12685	3.13750	0.00000
26.19697	3.13539	0.00000
26.26747	3.13324	0.00000
26.33835	3.13107	0.00000
26.40962	3.12885	0.00000
26.48127	3.12660	0.00000
26.55331	3.12431	0.00000
26.62574	3.12198	0.00000
26.69857	3.11961	0.00000
26.77180	3.11721	0.00000
26.84543	3.11476	0.00000
26.91947	3.11226	0.00000
26.99392	3.10973	0.00000
27.06878	3.10714	0.00000
27.14406	3.10451	0.00000
27.21976	3.10184	0.00000
27.29588	3.09911	0.00000
27.37242	3.09634	0.00000
27.44940	3.09351	0.00000
27.52681	3.09063	0.00000
27.60466	3.08770	0.00000
27.68295	3.08471	0.00000
27.76169	3.08166	0.00000
27.84088	3.07855	0.00000
27.92052	3.07538	0.00000
28.00061	3.07215	0.00000
28.08117	3.06885	0.00000
28.16219	3.06549	0.00000
28.24368	3.06206	0.00000
28.32564	3.05856	0.00000
28.40809	3.05498	0.00000
28.49101	3.05133	0.00000
28.57442	3.04760	0.00000
28.65831	3.04379	0.00000
28.74270	3.03990	0.00000
28.82759	3.03592	0.00000
28.91299	3.03186	0.00000
28.99889	3.02770	0.00000
29.08530	3.02345	0.00000
29.17223	3.01910	0.00000
29.25968	3.01465	0.00000
29.34765	3.01010	0.00000
29.43616	3.00543	0.00000
29.52520	3.00066	0.00000
29.61478	2.99576	0.00000
29.70491	2.99075	0.00000
29.79559	2.98561	0.00000
29.88682	2.98034	0.00000
29.97861	2.97494	0.00000
30.07097	2.96939	0.00000
30.16390	2.96370	0.00000
30.25741	2.95786	0.00000
30.35150	2.95186	0.00000
30.44617	2.94569	0.00000
30.54144	2.93936	0.00000
30.63730	2.93284	0.00000
30.73377	2.92614	0.00000
30.83085	2.91924	0.00000
30.92854	2.91213	0.00000
31.02686	2.90482	0.00000
31.12580	2.89728	0.00000
31.22537	2.88951	0.00000
31.32559	2.88149	0.00000
31.42644	2.87321	0.00000
31.52796	2.86467	0.00000
31.63012	2.85584	0.00000
31.73296	2.84671	0.00000
31.83646	2.83727	0.00000
31.94064	2.82749	0.00000
32.04551	2.81737	0.00000
32.15106	2.80688	0.00000
32.25732	2.79599	0.00000
32.36427	2.78470	0.00000
32.47194	2.77296	0.00000
32.58033	2.76076	0.00000
32.68945	2.74806	0.00000
32.79929	2.73484	0.00000
32.90988	2.72106	0.00000
33.02122	2.70667	0.00000
33.13331	2.69164	0.00000
33.24617	2.67592	0.00000
33.35980	2.65946	0.00000
33.47420	2.64221	0.00000
33.58940	2.62409	0.00000
33.70539	2.60504	0.00000
33.82218	2.58497	0.00001
33.93979	2.56380	0.00001
34.05822	2.54143	0.00002
34.17747	2.51774	0.00004
34.29757	2.49259	0.00006
34.41851	2.46583	0.00010
34.54031	2.43729	0.00016
34.66297	2.40676	0.00026
34.78650	2.37399	0.00042
34.91093	2.33869	0.00066
35.03624	2.30053	0.00103
35.16245	2.25911	0.00161
35.28958	2.21392	0.00247
35.41764	2.16440	0.00378
35.54662	2.10981	0.00573
35.67655	2.04929	0.00862
35.80743	1.98176	0.01288
35.93927	1.90586	0.01915
36.07209	1.81989	0.02837
36.20590	1.72163	0.04195
36.34070	1.60816	0.06214
36.47651	1.47552	0.09269
36.61333	1.31834	0.14044
36.75119	1.13008	0.21939
36.89009	0.91020	0.36079
37.03004	0.70495	0.61031
37.17106	0.60234	0.92567
37.31316	0.58374	1.22452
37.45635	0.60602	1.49627
37.60064	0.65105	1.74943
37.74605	0.71219	1.99222
37.89258	0.78791	2.23182
38.04026	0.88087	2.47465
38.18910	0.99843	2.72540
38.33910	1.15272	2.98405
38.49029	1.35806	3.24216
38.64267	1.62529	3.48104
38.79627	1.95499	3.67406
38.95109	2.33285	3.79349
39.10715	2.72995	3.81957
39.26447	3.10857	3.74833
39.42305	3.43198	3.59505
39.58293	3.67501	3.39149
39.74410	3.83176	3.17728
39.90660	3.91683	2.98791
40.07042	3.95916	2.84384
40.23560	3.98995	2.74597
40.40215	4.03113	2.68000
40.57008	4.09039	2.62661
40.73941	4.16415	2.57029
40.91016	4.24379	2.50276
41.08235	4.32039	2.42189
41.25600	4.38684	2.32943
41.43112	4.43805	2.22909
41.60773	4.47065	2.12566
41.78585	4.48272	2.02476
41.96551	4.47385	1.93284
42.14672	4.44558	1.85702
42.32950	4.40208	1.80479
42.51387	4.35082	1.78301
42.69985	4.30297	1.79623
42.88747	4.27267	1.84442
43.07675	4.27473	1.92097
43.26770	4.32075	2.01230
43.46035	4.41554	2.10022
43.65473	4.55564	2.16599
43.85085	4.73053	2.19433
44.04875	4.92533	2.17560
44.24843	5.12365	2.10633
44.44994	5.30991	1.98868
44.65329	5.47085	1.82929
44.85851	5.59656	1.63802
45.06563	5.68098	1.42661
45.27466	5.72201	1.20729
45.48564	5.72122	0.99166
45.69860	5.68322	0.78962
45.91357	5.61484	0.60870
46.13056	5.52417	0.45366
46.34962	5.41957	0.32648
46.57076	5.30876	0.22662
46.79403	5.19820	0.15162
47.01945	5.09265	0.09775
47.24705	4.99517	0.06074
47.47686	4.90720	0.03642
47.70892	4.82898	0.02111
47.94326	4.75994	0.01186
48.17991	4.69906	0.00649
48.41892	4.64519	0.00348
48.66030	4.59721	0.00184
