Material: main / BaF2 / Milam
Optical constants. D. Milam, M. J. Weber, A. J. Glass. Nonlinear refractive index of fluoride crystals, Appl. Phys. Lett. 31, 822 (1977)
Comments: Cubic BaF2. 125 ps. Time-resolved interferometry.
Specs: {"n2_method": "TRI", "pulse_duration": "125e-12"}
wavelength (um)	n	2
1.064	2.85e-20
