Material: main / BaF2 / Polyanskiy
Optical constants. M. N. Polyanskiy, I. V. Pogorelsky, M. Babzien, R. Kupfer, K. L. Vodopyanov, M. A. Palmer. Post-compression of long-wave infrared 2 picosecond sub-terawatt pulses in bulk materials, Opt. Express 29, 31714 (2021)
Comments: 2 ps. Single-shot self focusing.
Specs: {"n2_method": "SSSF", "pulse_duration": "2e-12"}
wavelength (um)	n	2
9.2	1.7e-20
