Material: perovskite / CsPbI3 / Aftenieva
Optical constants. O. Aftenieva, J. Brunner, M. Adnan, S. Sarkar, A. Fery, Y. Vaynzof, T. A. F. König. Directional Amplified Photoluminescence through Large-Area Perovskite-Based Metasurfaces, ACS Nano 17, 2399–2410 (2023) (Numerical data kindly provided by Tobias König)
Comments: Cesium lead triiodide (CsPbI3) perovskite nanocrystals
wavelength (um)	n	k
0.3000	1.777260	0.589717
0.3020	1.785932	0.594935
0.3040	1.795036	0.599694
0.3060	1.804527	0.603938
0.3080	1.814349	0.607615
0.3100	1.824433	0.610682
0.3120	1.834700	0.613107
0.3140	1.845062	0.614870
0.3160	1.855420	0.615972
0.3180	1.865670	0.616433
0.3200	1.875708	0.616305
0.3220	1.885440	0.615673
0.3240	1.894799	0.614661
0.3260	1.903763	0.613420
0.3280	1.912384	0.612110
0.3300	1.920789	0.610859
0.3320	1.929165	0.609719
0.3340	1.937722	0.608628
0.3360	1.946617	0.607400
0.3380	1.955883	0.605758
0.3400	1.965379	0.603411
0.3420	1.974788	0.600158
0.3440	1.983677	0.595985
0.3460	1.991606	0.591121
0.3480	1.998258	0.586030
0.3500	2.003556	0.581340
0.3520	2.007735	0.577711
0.3540	2.011347	0.575688
0.3560	2.015188	0.575549
0.3580	2.020164	0.577207
0.3600	2.027120	0.580178
0.3620	2.036662	0.583634
0.3640	2.049024	0.586537
0.3660	2.064013	0.587813
0.3680	2.081036	0.586534
0.3700	2.099204	0.582064
0.3720	2.117476	0.574131
0.3740	2.134816	0.562842
0.3760	2.150323	0.548628
0.3780	2.163323	0.532159
0.3800	2.173415	0.514232
0.3820	2.180475	0.495669
0.3840	2.184621	0.477230
0.3860	2.186162	0.459547
0.3880	2.185530	0.443088
0.3900	2.183216	0.428147
0.3920	2.179707	0.414859
0.3940	2.175448	0.403224
0.3960	2.170812	0.393143
0.3980	2.166088	0.384456
0.4000	2.161480	0.376975
0.4020	2.157121	0.370507
0.4040	2.153084	0.364878
0.4060	2.149398	0.359936
0.4080	2.146068	0.355557
0.4100	2.143082	0.351648
0.4120	2.140425	0.348137
0.4140	2.138081	0.344970
0.4160	2.136040	0.342108
0.4180	2.134296	0.339516
0.4200	2.132852	0.337167
0.4220	2.131712	0.335031
0.4240	2.130886	0.333078
0.4260	2.130382	0.331274
0.4280	2.130209	0.329583
0.4300	2.130373	0.327964
0.4320	2.130876	0.326373
0.4340	2.131714	0.324767
0.4360	2.132879	0.323099
0.4380	2.134354	0.321324
0.4400	2.136117	0.319398
0.4420	2.138142	0.317283
0.4440	2.140393	0.314941
0.4460	2.142833	0.312342
0.4480	2.145419	0.309461
0.4500	2.148107	0.306282
0.4520	2.150851	0.302791
0.4540	2.153604	0.298985
0.4560	2.156321	0.294867
0.4580	2.158957	0.290444
0.4600	2.161471	0.285732
0.4620	2.163826	0.280750
0.4640	2.165987	0.275522
0.4660	2.167926	0.270075
0.4680	2.169618	0.264440
0.4700	2.171044	0.258649
0.4720	2.172189	0.252736
0.4740	2.173044	0.246734
0.4760	2.173604	0.240676
0.4780	2.173867	0.234596
0.4800	2.173839	0.228524
0.4820	2.173525	0.222490
0.4840	2.172935	0.216520
0.4860	2.172081	0.210640
0.4880	2.170980	0.204872
0.4900	2.169646	0.199234
0.4920	2.168098	0.193745
0.4940	2.166353	0.188417
0.4960	2.164432	0.183262
0.4980	2.162354	0.178289
0.5000	2.160136	0.173505
0.5020	2.157799	0.168915
0.5040	2.155361	0.164520
0.5060	2.152839	0.160322
0.5080	2.150250	0.156320
0.5100	2.147610	0.152510
0.5120	2.144934	0.148891
0.5140	2.142236	0.145457
0.5160	2.139529	0.142203
0.5180	2.136824	0.139123
0.5200	2.134133	0.136209
0.5220	2.131464	0.133454
0.5240	2.128829	0.130851
0.5260	2.126233	0.128391
0.5280	2.123683	0.126066
0.5300	2.121187	0.123867
0.5320	2.118749	0.121786
0.5340	2.116374	0.119813
0.5360	2.114065	0.117940
0.5380	2.111824	0.116159
0.5400	2.109654	0.114460
0.5420	2.107557	0.112835
0.5440	2.105532	0.111275
0.5460	2.103580	0.109774
0.5480	2.101699	0.108322
0.5500	2.099888	0.106912
0.5520	2.098146	0.105537
0.5540	2.096469	0.104190
0.5560	2.094855	0.102864
0.5580	2.093299	0.101554
0.5600	2.091798	0.100254
0.5620	2.090346	0.098959
0.5640	2.088939	0.097665
0.5660	2.087570	0.096368
0.5680	2.086235	0.095065
0.5700	2.084926	0.093755
0.5720	2.083637	0.092435
0.5740	2.082362	0.091106
0.5760	2.081094	0.089768
0.5780	2.079826	0.088422
0.5800	2.078553	0.087072
0.5820	2.077268	0.085720
0.5840	2.075966	0.084372
0.5860	2.074642	0.083034
0.5880	2.073293	0.081711
0.5900	2.071916	0.080412
0.5920	2.070509	0.079144
0.5940	2.069074	0.077918
0.5960	2.067611	0.076740
0.5980	2.066124	0.075622
0.6000	2.064619	0.074572
0.6020	2.063103	0.073597
0.6040	2.061585	0.072705
0.6060	2.060076	0.071902
0.6080	2.058588	0.071192
0.6100	2.057135	0.070577
0.6120	2.055731	0.070056
0.6140	2.054390	0.069628
0.6160	2.053129	0.069285
0.6180	2.051960	0.069021
0.6200	2.050897	0.068824
0.6220	2.049951	0.068681
0.6240	2.049133	0.068576
0.6260	2.048448	0.068491
0.6280	2.047903	0.068408
0.6300	2.047496	0.068308
0.6320	2.047227	0.068169
0.6340	2.047090	0.067972
0.6360	2.047077	0.067699
0.6380	2.047175	0.067331
0.6400	2.047372	0.066853
0.6420	2.047649	0.066252
0.6440	2.047989	0.065517
0.6460	2.048372	0.064641
0.6480	2.048777	0.063620
0.6500	2.049184	0.062452
0.6520	2.049572	0.061139
0.6540	2.049922	0.059686
0.6560	2.050214	0.058101
0.6580	2.050432	0.056394
0.6600	2.050561	0.054577
0.6620	2.050589	0.052663
0.6640	2.050505	0.050669
0.6660	2.050301	0.048609
0.6680	2.049972	0.046500
0.6700	2.049514	0.044359
0.6720	2.048928	0.042201
0.6740	2.048214	0.040043
0.6760	2.047375	0.037898
0.6780	2.046417	0.035780
0.6800	2.045347	0.033702
0.6820	2.044171	0.031675
0.6840	2.042898	0.029707
0.6860	2.041537	0.027807
0.6880	2.040098	0.025980
0.6900	2.038591	0.024233
0.6920	2.037025	0.022568
0.6940	2.035411	0.020988
0.6960	2.033756	0.019493
0.6980	2.032071	0.018084
0.7000	2.030363	0.016759
0.7020	2.028641	0.015518
0.7040	2.026910	0.014357
0.7060	2.025177	0.013273
0.7080	2.023449	0.012264
0.7100	2.021729	0.011326
0.7120	2.020023	0.010454
0.7140	2.018333	0.009645
0.7160	2.016662	0.008895
0.7180	2.015014	0.008200
0.7200	2.013389	0.007556
0.7220	2.011790	0.006959
0.7240	2.010216	0.006406
0.7260	2.008670	0.005893
0.7280	2.007152	0.005417
0.7300	2.005661	0.004976
0.7320	2.004197	0.004566
0.7340	2.002761	0.004184
0.7360	2.001351	0.003830
0.7380	1.999968	0.003500
0.7400	1.998611	0.003192
0.7420	1.997278	0.002906
0.7440	1.995971	0.002639
0.7460	1.994687	0.002391
0.7480	1.993426	0.002159
0.7500	1.992187	0.001943
0.7520	1.990970	0.001742
0.7540	1.989775	0.001555
0.7560	1.988600	0.001381
0.7580	1.987445	0.001220
0.7600	1.986309	0.001071
0.7620	1.985192	0.000933
0.7640	1.984093	0.000807
0.7660	1.983013	0.000691
0.7680	1.981950	0.000586
0.7700	1.980905	0.000490
0.7720	1.979876	0.000404
0.7740	1.978865	0.000328
0.7760	1.977870	0.000261
0.7780	1.976892	0.000203
0.7800	1.975931	0.000154
0.7820	1.974986	0.000113
0.7840	1.974058	0.000081
0.7860	1.973148	0.000057
0.7880	1.972255	0.000042
0.7900	1.971382	0.000034
0.7920	1.970531	0.000031
0.7940	1.969699	0.000028
0.7960	1.968883	0.000025
0.7980	1.968083	0.000023
0.8000	1.967297	0.000021
0.8020	1.966525	0.000019
0.8040	1.965766	0.000017
0.8060	1.965019	0.000015
0.8080	1.964284	0.000014
0.8100	1.963561	0.000013
0.8120	1.962849	0.000012
0.8140	1.962147	0.000010
0.8160	1.961455	0.000009
0.8180	1.960774	0.000009
0.8200	1.960102	0.000008
0.8220	1.959440	0.000007
0.8240	1.958786	0.000006
0.8260	1.958142	0.000006
0.8280	1.957506	0.000005
0.8300	1.956878	0.000005
0.8320	1.956258	0.000004
0.8340	1.955647	0.000004
0.8360	1.955043	0.000004
0.8380	1.954447	0.000003
0.8400	1.953858	0.000003
0.8420	1.953276	0.000003
0.8440	1.952701	0.000002
0.8460	1.952133	0.000002
0.8480	1.951572	0.000002
0.8500	1.951017	0.000002
0.8520	1.950469	0.000002
0.8540	1.949926	0.000001
0.8560	1.949390	0.000001
0.8580	1.948861	0.000001
0.8600	1.948336	0.000001
0.8620	1.947818	0.000001
0.8640	1.947305	0.000001
0.8660	1.946798	0.000001
0.8680	1.946296	0.000001
0.8700	1.945800	0.000001
0.8720	1.945309	0.000001
0.8740	1.944823	0.000001
0.8760	1.944342	0.000000
0.8780	1.943866	0.000000
0.8800	1.943394	0.000000
0.8820	1.942928	0.000000
0.8840	1.942466	0.000000
0.8860	1.942009	0.000000
0.8880	1.941556	0.000000
0.8900	1.941108	0.000000
0.8920	1.940663	0.000000
0.8940	1.940224	0.000000
0.8960	1.939788	0.000000
0.8980	1.939357	0.000000
0.9000	1.938930	0.000000
0.9020	1.938506	0.000000
0.9040	1.938087	0.000000
0.9060	1.937671	0.000000
0.9080	1.937260	0.000000
0.9100	1.936852	0.000000
0.9120	1.936448	0.000000
0.9140	1.936047	0.000000
0.9160	1.935650	0.000000
0.9180	1.935256	0.000000
0.9200	1.934867	0.000000
0.9220	1.934480	0.000000
0.9240	1.934097	0.000000
0.9260	1.933717	0.000000
0.9280	1.933340	0.000000
0.9300	1.932967	0.000000
0.9320	1.932596	0.000000
0.9340	1.932229	0.000000
0.9360	1.931865	0.000000
0.9380	1.931504	0.000000
0.9400	1.931146	0.000000
0.9420	1.930791	0.000000
0.9440	1.930439	0.000000
0.9460	1.930090	0.000000
0.9480	1.929743	0.000000
0.9500	1.929400	0.000000
0.9520	1.929059	0.000000
0.9540	1.928721	0.000000
0.9560	1.928385	0.000000
0.9580	1.928052	0.000000
0.9600	1.927722	0.000000
0.9620	1.927395	0.000000
0.9640	1.927069	0.000000
0.9660	1.926747	0.000000
0.9680	1.926427	0.000000
0.9700	1.926109	0.000000
0.9720	1.925794	0.000000
0.9740	1.925481	0.000000
0.9760	1.925170	0.000000
0.9780	1.924862	0.000000
0.9800	1.924556	0.000000
0.9820	1.924253	0.000000
0.9840	1.923951	0.000000
0.9860	1.923652	0.000000
0.9880	1.923355	0.000000
0.9900	1.923060	0.000000
0.9920	1.922767	0.000000
0.9940	1.922477	0.000000
0.9960	1.922188	0.000000
0.9980	1.921901	0.000000
1.0000	1.921617	0.000000
1.0050	1.920914	0.000000
1.0100	1.920224	0.000000
1.0150	1.919545	0.000000
1.0200	1.918878	0.000000
1.0250	1.918222	0.000000
1.0300	1.917577	0.000000
1.0350	1.916942	0.000000
1.0400	1.916318	0.000000
1.0450	1.915703	0.000000
1.0500	1.915098	0.000000
1.0550	1.914503	0.000000
1.0600	1.913917	0.000000
1.0650	1.913339	0.000000
1.0700	1.912771	0.000000
1.0750	1.912210	0.000000
1.0800	1.911659	0.000000
1.0850	1.911115	0.000000
1.0900	1.910578	0.000000
1.0950	1.910050	0.000000
1.1000	1.909529	0.000000
1.1050	1.909015	0.000000
1.1100	1.908509	0.000000
1.1150	1.908009	0.000000
1.1200	1.907516	0.000000
1.1250	1.907030	0.000000
1.1300	1.906550	0.000000
1.1350	1.906076	0.000000
1.1400	1.905608	0.000000
1.1450	1.905147	0.000000
1.1500	1.904691	0.000000
1.1550	1.904241	0.000000
1.1600	1.903796	0.000000
1.1650	1.903357	0.000000
1.1700	1.902924	0.000000
1.1750	1.902495	0.000000
1.1800	1.902072	0.000000
1.1850	1.901653	0.000000
1.1900	1.901240	0.000000
1.1950	1.900831	0.000000
1.2000	1.900427	0.000000
