Material: main / ZnWO4 / Bond-gamma
Optical constants. W. L. Bond. Measurement of the refractive indices of several crystals , J. Appl. Phys. 36, 1674-1677 (1965)
Comments: Monoclinic ZnWO4; nÎ³; room temperature.
wavelength (um)	n
0.42	2.4497
0.45	2.4191
0.55	2.3547
0.60	2.3362
0.70	2.3118
0.80	2.2970
0.90	2.2865
1.10	2.2731
1.20	2.2684
1.40	2.2612
1.60	2.2554
1.80	2.2503
2.00	2.2455
2.40	2.2359
2.60	2.2309
2.80	2.2254
3.20	2.2140
3.40	2.2079
3.60	2.2013
