Material: main / Al2O3 / DeSalvo
Optical constants. R. DeSalvo, A. A. Said, D. J. Hagan, E. W. Van Stryland, M. Sheik-Bahae. Infrared to ultraviolet measurements of two-photon absorption and n2 in wide bandgap solids, IEEE J. Quantum Electron. 32, 1324 (1996)
Comments: Extraordinary ray (e). 15 ps @ 266 nm, 17 ps @ 355 nm, 22 ps @ 532 nm, 30 ps @ 1064 nm. Z-scan.
Specs: {"n2_method": "Z-scan", "pulse_duration": "15e-12 17e-12 22e-12 30e-12"}
wavelength (um)	n	2
0.266	5.97e-20
0.355	3.75e-20
0.532	3.33e-20
1.064	3.12e-20
