Material: glass / AMTIR-6 / Ensley
Optical constants. T. R. Ensley and N. K. Bambha. Ultrafast nonlinear refraction measurements of infrared transmitting materials in the mid-wave infrared, Opt. Express 27, 37940 (2019)
Comments: 100 fs. Z-scan.
Specs: {"n2_method": "Z-scan", "pulse_duration": "100e-15"}
wavelength (um)	n	2
2.0	2.5e-18
3.9	8.3e-18
